Geom Title=453 17B Geometry Data
Program Version=5.07
Viewing Rectangle= 1480067.1630604 , 1482246.59089923 , 716001.048521818 , 714337.894569091 

River Reach=big branch      ,RiverCL         
Reach XY= 23 
      1480088.53       715856.03      1480144.08       715773.52
       1480206.6       715673.93      1480332.54       715627.76
      1480470.73       715600.36      1480634.44       715627.61
      1480938.53       715681.98      1481110.67       715712.76
      1481252.92       715735.85      1481388.36       715735.85
       1481596.6       715688.33      1481826.74       715635.82
      1481954.56       715566.67      1481993.52       715502.39
      1482016.17       715405.52       1481996.2       715187.68
       1481996.2       715013.86      1481976.22       714780.61
      1481956.28       714675.59      1481891.05       714552.47
      1481799.54       714486.38      1481676.32       714414.86
      1481584.81        714354.2
Rch Text X Y=1480462.6,715480.5725
Reverse River Text= 0 

Type RM Length L Ch R = 1 ,3223.1  ,405.84,405.84,405.84
XS GIS Cut Line=3
1481832.56541484714360.4686270361481759.47814457714463.127588807
1481630.87408541714643.765874295
Node Last Edited Time=Jan/15/2021 20:54:27
#Sta/Elev= 38 
       0 299.098   2.316  298.01  13.467 290.324  16.711 288.631  95.874 252.962
 108.444 246.619 112.686 244.467 114.733 244.487   118.9 244.492 126.018 244.523
 127.739  244.53 138.879 244.527 145.866   244.6 155.471 244.637 158.141 244.659
 161.659 244.687  205.21 250.648 209.301 251.179 217.294  252.25 217.988 252.216
 222.491 251.991 223.154 252.086  227.32 252.496  228.08  252.58 228.229 252.591
 268.067 260.376 268.924 260.541 269.182 260.536 271.903 260.453 276.785 260.471
 281.954 260.474 287.138  260.46 291.937 260.469 292.966 260.494 324.374 269.625
 329.175 271.187 344.108 274.947  347.76     276
#Mann= 3 , 0 , 0 
       0    .001       0       0    .001       0  347.76    .001       0
Bank Sta=0,347.76
XS Rating Curve= 0 ,0
XS HTab Starting El and Incr=244.617,0.3, 100 
XS HTab Horizontal Distribution= 5 , 5 , 5 
Exp/Cntr=0.3,0.1

Type RM Length L Ch R = 1 ,2817.26 ,373.61,373.61,373.61
XS GIS Cut Line=3
1482198.10080521714731.2211157981481976.25156692714781.020584578
1481781.04235393714824.840050369
Node Last Edited Time=Jan/15/2021 20:49:48
#Sta/Elev= 56 
       0     318  20.315 314.221  40.081 309.671  40.491 309.554 102.022 278.677
 119.669 270.224 159.185 250.343 165.952  249.08 166.115 249.045 166.287 249.042
 166.489 249.047 172.988 249.109 173.819 249.105 183.432 246.779 189.999 245.323
 191.526  245.34 193.611 245.331 196.752  245.31 199.534 245.325 200.477 245.321
 201.525  245.33 206.169 245.386 206.504 245.381 210.132  245.22 213.397 245.297
  216.85 245.227 219.192 245.282 219.971 245.251 220.747  245.26 223.838 245.232
 226.942 245.139  227.37 245.145 228.212 245.158 231.489 245.261 233.971 245.261
 235.448 245.255 238.796 245.286 243.167 245.479 243.639 245.461 245.509 245.317
 249.239 245.383 252.286  245.31 256.263 245.457 256.643 245.463 256.885 245.469
 257.301 245.441 260.986 245.261 261.591 245.272 265.466 245.767 281.012  247.75
 292.422 249.072 381.704 259.812 384.084 260.047   389.3 260.008 394.208 259.953
 427.437     270
#Mann= 3 , 0 , 0 
       0    .001       0       0    .001       0 427.437    .001       0
Bank Sta=0,427.437
XS Rating Curve= 0 ,0
XS HTab Starting El and Incr=245.289,0.3, 100 
XS HTab Horizontal Distribution= 5 , 5 , 5 
Exp/Cntr=0.3,0.1

Type RM Length L Ch R = 1 ,2443.65 ,384.67,384.67,384.67
XS GIS Cut Line=3
1482225.22395963715153.7740827251481996.20071617715153.774082725
1481779.44253041715153.774082725
Node Last Edited Time=Jan/15/2021 20:37:54
#Sta/Elev= 75 
       0 330.495  24.682 317.375  85.668 285.471 137.233 256.909 146.703 254.147
 148.032 254.026 156.965 250.989 161.581 249.704 170.227 247.486 172.311  247.44
 174.069 247.434 181.354 247.531 185.293 247.541 188.835 247.472 189.773 247.463
 193.687 247.479 196.535 247.387 197.365 247.356 197.781 247.351 198.589 247.367
 201.615 247.428 202.339 247.422 203.714 247.434  205.88 247.465 207.007 247.443
  208.94  247.43 210.904  247.48 211.948 247.495 214.293 247.463 215.415 247.445
 215.909 247.434 218.523   247.4 220.344 247.429 225.282 247.457 227.364 247.492
 228.038 247.492 228.981 247.487 229.023 247.486 233.709 247.395 234.377 247.403
 235.262 247.435 238.836 247.603 240.551 247.575 243.688 247.511 245.578 247.529
 248.089 247.516 251.053 247.529 253.611 247.551 254.946 247.615 257.758  247.69
 257.772  247.69 261.508 247.565  263.81 247.495 266.004 247.542 268.617 247.603
 271.334 247.574  286.78 249.726  304.85 252.381 332.255 256.206 345.092 257.988
 352.402 258.724 367.692 260.872 369.147 261.026 371.887 261.528 373.308 261.923
 380.311 262.944 386.086 263.994 392.997 265.707 394.519 265.806 396.918 265.744
  398.88 265.779 400.911 265.812 402.241 265.976 403.025 266.246 445.781     282
#Mann= 3 , 0 , 0 
       0    .001       0       0    .001       0 445.781    .001       0
Bank Sta=0,445.781
XS Rating Curve= 0 ,0
XS HTab Starting El and Incr=247.501,0.3, 100 
XS HTab Horizontal Distribution= 5 , 5 , 5 
Exp/Cntr=0.3,0.1

Type RM Length L Ch R = 1 ,2058.98 ,471.31,471.31,471.31
XS GIS Cut Line=3
 1482149.8034829715657.510480075 1481976.6592507715530.208059989
1481764.03539663715373.878675828
Node Last Edited Time=Jan/15/2021 20:12:43
#Sta/Elev= 27 
       0     332  85.559 289.064  97.687 282.065 125.934 268.017 170.695 249.894
 175.155 249.877 182.808 249.849 190.257 249.796 199.858 249.606 214.907 249.637
 230.277 249.668 245.121 249.937 247.465 250.135 264.141 252.744 306.797 259.208
 313.901 260.138 320.462 261.085 322.127  261.28 324.518 261.603 325.439 261.743
 342.952 267.265  360.26 265.813 371.096 270.994 373.424 272.613 374.262 272.449
 380.697 275.857 478.815     292
#Mann= 3 , 0 , 0 
       0    .002       0       0    .002       0 478.815    .002       0
Bank Sta=0,478.815
XS Rating Curve= 0 ,0
XS HTab Starting El and Incr=249.756,0.3, 100 
XS HTab Horizontal Distribution= 5 , 5 , 5 
Exp/Cntr=0.3,0.1

Type RM Length L Ch R = 1 ,1587.67 ,429.34,429.34,429.34
XS GIS Cut Line=3
1481588.70953608715932.832654639 1481550.4910382715698.853475634
1481509.38753813715447.211895425
Node Last Edited Time=Jan/15/2021 15:20:27
#Sta/Elev= 84 
       0     266  21.377 264.038  25.096 263.696   25.45 263.702  27.058 263.496
  28.635 263.384  30.997 263.079  37.031  262.47  39.374 262.225   41.92  262.01
  42.743 261.942  43.014 261.911  48.638 261.414  50.459  261.24   53.93 260.974
  57.892 260.855  60.164 260.813  61.238 260.785  62.762 260.724  64.905 260.652
  67.639 260.537  69.473 260.457  74.821 260.116  75.943 260.079  79.579 259.992
   82.81 259.912  87.321  259.92  89.008 259.914  92.337 259.886  93.075 259.877
  94.974 259.834 102.211 259.696 116.691 259.342  119.28 259.417 125.549 259.398
 127.095 259.385 133.227 259.512 135.325  259.54 137.588 259.607 140.118 259.652
 141.151 259.669  142.46 259.679 147.651 259.635 149.275 259.666 188.621 250.592
 189.412 250.426 190.641 250.173 191.071 250.176 192.063 250.172 199.275 250.057
 207.448 249.912 211.452 249.806  220.64 249.772 231.826 251.295 234.983 251.779
  237.08 252.059 241.647 252.668 295.459  257.85 299.897   258.4  310.37 260.965
 312.131 261.254 315.495 261.719 331.011 263.384 331.329  263.42 331.587  263.46
 334.269 263.973 340.326 266.688 344.396 266.885  352.51 269.322 388.582 276.457
  395.07 276.009 396.329 276.053 397.904 276.498  401.21 279.366 435.018 289.695
 473.927 300.202 478.244 300.743 479.017 300.681 481.079 300.646 484.044  300.61
 485.224 300.651 486.034 300.699 488.881 300.714 492.056     302
#Mann= 3 , 0 , 0 
       0    .002       0       0    .002       0 492.056    .002       0
Bank Sta=0,492.056
XS Rating Curve= 0 ,0
XS HTab Starting El and Incr=249.922,0.3, 100 
XS HTab Horizontal Distribution= 5 , 5 , 5 
Exp/Cntr=0.3,0.1

Type RM Length L Ch R = 1 ,1158.33 ,490.43,490.43,490.43
XS GIS Cut Line=3
1481072.01986159715984.7430909091481126.97304993715715.409709003
1481185.67013878715427.726938937
Node Last Edited Time=Jan/15/2021 14:53:02
#Sta/Elev= 69 
       0 269.287    .079 269.288   1.017 269.301   3.204 269.319   3.358 269.319
   5.358 269.336   6.076 269.314   7.857  269.28   7.866  269.28  10.749 269.288
  11.909 269.303  13.198 269.246  13.697 269.292  15.485 269.221  16.199 269.167
  18.042 269.054  20.083 268.938  24.756 268.596  34.719 268.209  38.638 268.117
  39.825 268.095  40.614 268.088  41.556 268.111  41.828 268.069  42.344 268.088
 112.714 263.348 131.461  261.87 133.238 261.668 138.955 261.233 139.054 261.223
 144.855  260.48 144.972 260.469  148.12 260.297  149.81   260.2 150.574 260.082
 152.893 259.876 168.506 256.873 206.439 251.048 274.882 250.779  279.23 250.762
  293.56 250.574 309.757  250.64 331.465 255.726 335.812 255.999  350.62 259.147
 355.009 259.207 365.608 259.359  370.84 259.694 380.237 262.034 429.876  283.55
 446.622 291.075 454.589 292.654 459.904 292.908 461.169 292.956 462.919 292.921
 466.889 293.126 469.027 293.354  471.18 293.317 475.151 294.019 476.358 294.069
 477.647  294.63 481.608 295.749 484.516 296.559 485.876 297.106 487.653 297.666
 490.842 298.588 494.726 299.289 556.509 314.799 568.492     318
#Mann= 3 , 0 , 0 
       0    .002       0       0    .002       0 568.492    .002       0
Bank Sta=0,568.492
XS Rating Curve= 0 ,0
XS HTab Starting El and Incr=250.724,0.3, 100 
XS HTab Horizontal Distribution= 5 , 5 , 5 
Exp/Cntr=0.3,0.1

Type RM Length L Ch R = 1 ,667.9   ,255.1,255.1,255.1
XS GIS Cut Line=3
1480600.71721312715909.580688525 1480644.1520714715629.347187832
1480682.53572254715381.703121387
Node Last Edited Time=Jan/15/2021 12:20:25
#Sta/Elev= 186 
       0     276  31.244 273.039  34.251 272.795   37.69 272.451  46.227 272.229
    46.7 272.171   47.42 272.095  51.009 272.027  60.652 271.857 108.295 266.647
 116.073 266.017 119.956  265.65 129.744  264.88 170.776 261.752 171.098  261.77
 172.616 261.625 177.366 261.619 181.918 261.474 183.327 261.469  185.92 261.389
 186.203 261.389 194.057 261.077 200.509 260.982 207.768 260.782 208.586 260.762
 210.124 260.697 211.081 260.681 217.653 260.432 219.631 260.422 222.164 260.401
 231.489 256.644 248.951  250.41 251.314 250.351 254.472 250.305  262.37  250.27
 265.919  250.33 275.069 250.249 278.622 250.246  280.65 250.236 281.032 250.242
  283.58 250.209 286.196 250.175 287.921 250.151 288.595  250.16  289.42 250.155
  299.72 250.219 301.017 250.268 309.284 250.302 340.527 259.528 348.138 262.483
 352.603 264.634 353.143  264.64 353.358 264.691 353.459 264.693 355.016 264.655
 358.635 264.661 358.828 264.662 358.951 264.663 359.043 264.664  359.93  264.99
 362.163 265.793 366.095  266.92 366.364 265.054 367.158 264.742 367.862 265.203
 370.332 266.994 371.809 269.773 374.201 271.039 377.956 273.511 380.497 274.436
 400.215 285.186 405.826 287.992 406.943 288.269 410.897 290.471 412.349 291.261
 413.789 291.962  423.29 295.137 431.527 298.781 434.044 299.553 434.565  299.59
 436.188 300.834 449.722 309.149 450.646 309.476 455.952 313.362 456.075 313.468
 460.174 314.739 461.817 314.562 462.112 314.226 462.592 314.317 463.364 314.755
 464.148 315.155  464.54 315.406 465.577 315.589 466.115 315.555 466.283 315.651
 467.545 315.968 467.867 316.008 468.966 316.367 469.371 316.526  470.31  316.88
 470.851 317.017 471.705 317.176 472.374 317.299 473.091 317.589 473.974 317.856
 474.276 317.985 475.336 318.384  476.62 318.722 478.096 319.212  479.34 319.599
 480.602 320.037 481.597 320.578 481.769 320.726 481.837 320.704 481.881  320.72
 486.262 322.601 490.485 323.299 490.742 323.294 493.502 324.496 497.304 325.375
 497.492 325.459 498.049 325.623  498.37 325.825 499.231 325.874 499.972 326.189
 500.047 326.228 500.194 326.294 500.575 326.414 500.751 326.459 501.467 326.749
 502.079  327.02 502.441  327.28 502.706 327.432  504.34 328.052 504.773 328.253
  505.11 328.392 505.393 328.451 505.604 328.566  505.78 328.666 505.935 328.738
 507.944 328.443 508.257 328.478 509.769 329.375 509.991 329.513 510.252 329.557
 510.519  329.63 510.804 329.678 511.094 329.747 511.371 329.861 511.697 329.915
 514.038 331.257   514.1 331.255 514.165 331.268 514.249  331.25  514.34 331.237
 514.431 331.263 514.542 331.275 514.678 331.249 514.797 331.333 514.992 331.275
 515.193 331.268 515.431 331.264 515.641 331.323 516.006 331.275 516.263 331.398
 516.799 331.335 517.118 331.303  517.12 331.308 517.132 331.307 517.168 331.348
 517.207 331.428 517.222  331.42 517.229 331.402  517.23 331.408 517.241 331.385
 517.368 331.408 517.426 331.488 517.438 331.452 517.653 331.544 520.721 333.676
 523.294 334.448 525.463 335.102 526.653 335.521 529.187 336.588 530.268 336.938
  534.18     338
#Mann= 3 , 0 , 0 
       0    .002       0       0    .002       0  534.18    .002       0
Bank Sta=0,534.18
XS Rating Curve= 0 ,0
XS HTab Starting El and Incr=250.301,0.3, 100 
XS HTab Horizontal Distribution= 5 , 5 , 5 
Exp/Cntr=0.3,0.1

Type RM Length L Ch R = 1 ,412.8   ,,,
XS GIS Cut Line=3
1480412.65864835715829.6287252751480392.96861808715615.780978834
1480370.83052632715375.345541796
Node Last Edited Time=Jan/15/2021 12:00:45
#Sta/Elev= 56 
       0     286 103.037 262.522 129.636 260.611 131.531 260.575 141.717 259.048
  143.68 258.804  183.85 251.367 184.553 251.361 185.235  251.36 187.727 251.326
 209.032 251.201 214.752  251.17 221.343 251.134 223.938 251.189 230.042  251.06
 233.591 251.098 235.449  251.07 244.574 251.011 244.606 251.014 244.714 251.014
 250.883 251.526 252.032  251.56 274.573 261.034 285.649 265.658 286.373 265.676
 287.261 265.685  290.07  265.68  291.96 265.774 294.469 265.944 295.051 265.937
 295.769 266.001 296.428 266.002 299.293  266.01 301.574 266.351 301.803 266.339
 302.963 266.412 306.944 268.691 328.498 282.604 334.815   286.6 338.389 287.776
 369.178 303.164 370.128  303.24 400.337 321.931 405.819 324.087 421.759 332.668
 422.103 332.846 429.076 335.987 436.117  340.29  437.29 340.191 438.446 341.586
 441.038 341.874 443.397 342.455 444.594 342.849 445.628 343.222 447.342 343.914
 456.205     348
#Mann= 3 , 0 , 0 
       0     .05       0       0     .05       0 456.205     .05       0
Bank Sta=0,456.205
XS Rating Curve= 0 ,0
XS HTab Starting El and Incr=251.161,0.3, 100 
XS HTab Horizontal Distribution= 5 , 5 , 5 
Exp/Cntr=0.3,0.1

LCMann Time=Dec/30/1899 00:00:00
LCMann Region Time=Dec/30/1899 00:00:00
LCMann Table=0
Chan Stop Cuts=-1 



Use User Specified Reach Order=0
GIS Units=Meters
GIS DTM Type=
GIS DTM=
GIS Stream Layer=
GIS Cross Section Layer=
GIS Map Projection=
GIS Projection Zone=
GIS Datum=
GIS Vertical Datum=
GIS Data Extents=,,,

GIS Ratio Cuts To Invert=-1
GIS Limit At Bridges=0
Composite Channel Slope=5
