Geom Title=395 Geometry Data
Program Version=5.07
Viewing Rectangle= 294104.6807 , 295513.2293 , 4368852.51381145 , 4368515.26778405 

River Reach=monocacy river  ,RiverCL         
Reach XY= 22 
       295499.42      4368666.67       295428.11      4368681.08
       295394.37      4368687.32        295300.1      4368687.32
       295241.82      4368687.32        295174.6      4368698.66
       295109.77      4368709.61       295042.21      4368709.61
       294957.05      4368696.87       294865.71       4368678.7
       294799.97      4368674.16       294732.82      4368661.27
       294698.88      4368661.27       294614.92      4368661.27
       294536.79      4368679.53        294451.2      4368687.71
        294392.5      4368681.12       294342.11      4368669.47
       294261.39      4368669.47       294215.08      4368669.47
       294166.46       4368661.2       294118.49       4368641.7
Rch Text X Y=295154.1875,4368660.4275
Reverse River Text= 0 

Type RM Length L Ch R = 1 ,1340.13 ,126.71,126.71,126.71
XS GIS Cut Line=3
294192.6952941184368518.57411765294172.1034550824368662.16304187
294154.4601423494368785.19160142
Node Last Edited Time=Jan/13/2021 13:59:10
#Sta/Elev= 490 
       0      78    .066  78.009    .704  77.957   1.164  77.923   1.255  77.913
   2.115  78.001   2.657  78.017   3.153  77.994   3.394  77.967   3.461  77.981
   4.626  78.061   4.643  78.057   5.381  78.044    5.81  78.014   5.843  78.017
   6.387  78.119    6.99  78.125   7.074  78.112   7.389  78.091   8.162   78.08
   8.291  78.185   8.365  78.184   9.337   78.11   9.521  78.061   10.38  78.118
  10.541  78.149  10.643  78.162  11.242  78.142  11.395  78.133  11.625  78.137
  11.821  78.128  12.431  78.049  12.631  78.034  13.138  78.023  13.504  78.029
  14.024  78.069  14.377  78.084  14.592  78.112  15.426  78.153  15.591  78.153
  15.831  78.167  17.033  78.178    17.8  78.137  17.876  78.149   17.96  78.141
  18.861  78.173  19.159  78.191  19.569  78.223  20.547  78.273  20.987  78.263
  21.304  78.182  21.624  78.169  22.085   78.13  22.467  78.136  22.906  78.043
  23.197   78.01  23.686  78.018  24.189  78.019  24.314  78.036  24.975  77.933
  25.418  78.006  25.502  78.006  26.155  78.061  26.569  77.992   26.87  77.932
  28.091  77.801  28.553  77.784  28.766  77.739  29.444  77.677  29.707  77.618
  30.558  77.686  30.679  77.679   30.82  77.683  31.873  77.591  32.925  77.501
  33.155  77.479  33.957  77.507  34.157  77.565  34.452  77.526  34.993  77.533
  35.208  77.624  35.257   77.65  35.483  77.638  35.755  77.602  36.025  77.597
   36.34  77.666  36.429  77.673  37.081   77.69  37.473  77.613  37.546  77.626
  37.943  77.812  38.129  77.758  38.256  77.766  38.595  77.853  39.674   77.81
  40.644  77.744  40.868  77.743   41.63  77.687  42.016  77.697   42.63  77.729
  43.183  77.742  43.623  77.725  44.343  77.898  44.439  77.955  45.498  78.032
  46.354  78.086  47.251   78.17  47.864  78.194  48.053  78.176  48.307  78.116
  49.221  78.014  49.464  77.947  50.441  78.021  50.531  78.005  51.538  78.082
  51.861  78.038  52.782  77.933  53.185  77.912  53.894  77.942  54.335  77.968
  54.919   77.88  55.002   77.89  55.672  77.866  56.057  77.854  56.133  77.883
  56.804  77.953  57.098  77.942  57.902  78.016  57.959  78.029  58.057  77.944
  59.181  77.942  59.315  77.929  60.329  78.006  60.354  78.006  60.389  77.927
   60.76  77.899  61.307  77.838  61.472  77.828  61.519  77.817  61.771   77.82
  62.187   77.82  62.569  77.805  62.617  77.761  63.042  77.834  63.194   77.85
  63.672  77.818  63.862  77.831  64.441  77.848  64.755  77.848  64.954  77.858
  65.486  77.865  65.782  77.859  66.562  77.853  66.781  77.856  66.818  77.851
  67.811  77.645  68.827  77.562  68.994  77.538  69.144  77.505  69.865  77.458
  70.181  77.446  70.376   77.45  70.889  77.382  71.411  77.333  71.623  77.346
  71.931   77.35  72.664  77.347  72.903  77.262  72.983  77.259  73.875  77.356
  73.955  77.348  74.038  77.306   74.66   77.33  75.174  77.376  75.448  77.358
  76.329   77.39  80.123  75.088  81.676  74.027  81.747  73.953  81.994  73.957
  82.169  73.932  82.309  73.929  94.742  73.871 105.947  73.912 106.063   73.92
 106.216   73.97  106.31  74.008 106.448  74.105 106.509   74.13 113.532  74.047
  125.43    73.9  125.95  73.738 126.219  73.717 126.501  73.747 127.348   73.77
 127.796  73.779 128.509  73.702 129.158  73.735 129.689   73.75 130.224  73.788
 130.845  73.785 131.277  73.719 132.003  73.705 132.341  73.736 133.157  73.773
 133.396  73.747 134.308  73.724 134.451  73.739 135.478  73.711 136.068  73.705
 136.674  73.703 137.546   73.74 137.756  73.729 137.956  73.746 138.536  73.731
 138.896  73.707 139.529  73.719 140.037  73.712 140.518   73.71 141.172  73.758
 141.434  73.787 142.258  73.754 142.317   73.75 143.393  73.739 143.504  73.745
 144.472  73.766 144.705  73.753 145.547  73.695 145.907   73.73  146.62  73.776
 147.098  73.727 147.689  73.715 148.289  73.731 148.763  73.728 149.487  73.751
 149.828  73.741 150.677  73.662 150.898  73.653 151.859  73.684 151.957  73.699
 152.818  73.706 153.052  73.711 154.132   73.75 154.277  73.751 155.226  73.737
 155.499  73.708  156.33  73.755 156.719  73.757  157.43  74.117 157.921  74.377
 158.533  74.386 159.129  74.617 159.632  74.679 160.327  74.949 161.067   75.52
 161.816  76.375 162.675  76.891  162.91  77.066  163.88  77.112 164.005  77.107
  165.09   77.11 165.919  77.174 166.201  77.191 166.438  77.217 167.154  77.249
 167.228  77.177 167.416  77.155 167.559   77.22 168.014  77.208 168.223  77.209
 168.325  77.202 168.564  77.207 168.734   77.27 169.191  77.245 169.347  77.273
 169.728  77.228 169.853  77.227 170.389  77.168 170.668  77.173 171.021  77.159
 171.091  77.165 171.226  77.157 171.745  77.115   171.8  77.116  172.21  77.191
 172.295  77.179 172.504  77.195 172.771  77.146  172.85   77.14 173.033   77.14
 173.159  77.125 173.475  77.136 173.647  77.112 173.996  77.132 174.092  77.111
 174.621  77.146 174.745  77.157  175.28  77.173 175.535  77.177 176.314  77.217
 176.404  77.295  176.88  77.241 177.024  77.229 177.298  77.247 177.699  77.253
 177.908  77.351  178.34  77.373 178.644  77.356 179.036  77.408 179.662  77.461
 179.849  77.493 179.961  77.472 180.757  77.557  180.91  77.581 180.968  77.572
 181.127  77.594  182.03   77.63 182.127   77.63 183.194  77.709 184.189  77.795
 184.329  77.819 185.218  77.911 185.474  77.935 186.246  77.933 186.619   77.96
 187.276  78.085 187.753  78.166 188.304  78.182 188.898  78.188 189.334    78.2
 190.039  78.274 190.363  78.299 191.182  78.379 191.389  78.378 192.325  78.317
 192.417  78.309 193.514  78.402 194.122  78.433 194.397  78.449 194.595  78.488
 194.823   78.45 195.408  78.447 195.592  78.508 195.744   78.55 196.075   78.55
 196.361  78.564 196.812   78.62  196.89  78.653 197.253  78.747 197.285  78.747
 197.515   78.69 198.027  78.571 198.229  78.604 198.465  78.621 198.878  78.687
 199.063   78.69 199.736  78.737 199.853  78.748 200.072  78.752  200.35  78.781
  201.07  78.867 201.196   78.86 201.434  78.868 201.822  78.943 202.105   78.97
 202.462  79.029 203.177  78.999 203.281  79.047 203.496  79.098 203.612  79.106
 204.347  79.117 204.433  79.122 204.747  79.093 205.549  79.204 206.711  79.234
 207.116  79.286 207.761  79.379 207.876  79.384 208.428   79.43  208.84  79.449
 208.985  79.434 209.667  79.511 209.941  79.573 210.094  79.584  210.91   79.59
  211.05  79.622 211.173  79.637 212.097   79.73 212.206  79.747 213.036  79.858
 213.258  79.891 214.319  80.002 214.415  80.008 215.261  80.183 215.406  80.191
 215.567  80.321  216.56  80.796 217.396   80.89 218.002  81.011 218.302  81.097
 218.636  81.125 219.019  81.152 219.326  81.198 219.725  81.218 220.706  81.376
 220.803  81.386  221.33  81.502 221.514  81.525 221.882  81.552 221.961  81.562
 222.441  81.585 223.247  81.656 223.651  81.694 223.889  81.693 225.021  81.738
 225.363  81.737 226.208   81.77 226.267  81.781 226.612  81.792 227.318  81.869
 227.441    81.9 227.849  81.903 227.876  81.888 228.314  81.921 228.377  81.943
 229.202  82.092 229.373  82.101 230.251   82.14 230.419  82.172 230.519  82.197
 230.965   82.27 231.399  82.275 231.485  82.283 232.181  82.311 232.508  82.327
 233.474  82.312 233.756  82.355  234.69  82.507 234.778  82.618 235.017  82.623
 235.786  82.565 235.982  82.635 236.343  82.647 236.873  82.634 237.357   82.67
 237.631  82.715 238.564  82.741 238.875  82.767 239.054  82.758 240.076  82.766
 240.986  82.823 241.232  82.828 241.248  82.824 242.202  82.809 242.356  82.816
 243.418  82.831 243.663  82.859 244.416  82.961 245.346  82.939 245.725  82.948
 245.868  82.954 246.288  82.981 246.879  83.002  247.09  83.006 247.233  82.998
 248.037  82.945 248.167   82.95 248.305  82.964 249.093  83.061 249.551    83.1
 250.064  83.088 250.424  83.104 250.539  83.134 250.881  83.148 251.099  83.145
 251.854  83.213 252.015  83.217  252.28  83.208 253.108   83.17 253.258  83.174
 253.563  83.193 254.444  83.346 254.517  83.336 254.713   83.34 256.086  83.474
 258.545  83.433 258.756  83.419 259.663  83.555 261.578  83.623 269.345      86
#Mann= 3 , 0 , 0 
       0    .002       0       0    .002       0 269.345    .002       0
Bank Sta=0,269.345
XS Rating Curve= 0 ,0
XS HTab Starting El and Incr=73.803,0.3, 41 
XS HTab Horizontal Distribution= 5 , 5 , 5 
Exp/Cntr=0.3,0.1

Type RM Length L Ch R = 1 ,1213.42 ,165.7,165.7,165.7
XS GIS Cut Line=3
294298.1894565324368546.01427603294298.1894565324368669.46698334
294298.1894565324368819.24294118
Node Last Edited Time=Jan/13/2021 14:23:38
#Sta/Elev= 490 
       0  78.664    .281  78.621    .467  78.646    .634  78.599   1.425  78.677
   1.636  78.701    2.45  78.712   2.652  78.718   2.786  78.735   3.065  78.734
   3.576  78.694   3.683  78.683   3.793   78.69   3.953  78.721   4.276  78.713
   4.723  78.724   4.825  78.711   4.886  78.721   5.103  78.737   5.461  78.744
   5.869  78.782   6.024  78.784   6.261  78.823   6.637  78.833   7.098  78.767
   7.248   78.76   7.417  78.726   7.846  78.756   8.141  78.704   8.272  78.697
   8.564  78.779   9.031  78.793   9.278  78.728   9.402  78.709   9.544  78.704
   9.755  78.789  10.444  78.767   10.54  78.769    10.7  78.788  11.579   78.75
  11.662  78.738  11.839  78.749  12.045  78.737  12.604  78.761  12.721  78.781
  12.792  78.768  13.001  78.766   13.77  78.817  13.927  78.758  14.156  78.782
   15.02  78.744    15.3  78.742  16.169  78.719  16.179   78.71  16.449  78.705
  17.306  78.728  17.328  78.737  17.588  78.722  18.426  78.655  18.474  78.654
  18.804  78.617  19.311   78.67  19.548   78.66  19.577  78.704  19.656   78.71
  19.994   78.65  20.465  78.673  20.672  78.648  20.739  78.671  20.828  78.721
  21.202  78.702  21.506  78.638  21.794  78.627  21.901  78.635  22.183  78.628
  22.686   78.62  22.917  78.583  23.032  78.628   23.15  78.659  23.665  78.638
   23.88  78.602  24.047  78.543  24.194  78.582  24.337  78.576  24.455  78.535
  25.171  78.434  25.337  78.513  25.594  78.535    26.3  78.444  26.701  78.402
  26.766  78.381  27.417  78.391  27.873  78.392  28.543  78.373  28.918  78.373
  29.672  78.413  30.087  78.452  30.794  78.492  31.023  78.493  31.208  78.503
  31.914   78.45  32.155  78.427  32.328  78.418   33.04  78.422  33.266  78.399
  33.733  78.373  34.159  78.388  34.415  78.374  34.901  78.425  35.518  78.384
  35.556  78.371  35.623  78.375  36.084  78.379  36.669  78.282  36.759  78.272
  37.263  78.258   37.71  78.365  37.742  78.367  38.432  78.259  38.862  78.259
  39.628  78.244   39.98  78.249  40.838   78.16   41.14  78.109  42.026  78.103
  42.216  78.111  42.285  78.106  43.198  78.024  43.298  78.104   43.35  78.106
  44.426  77.945   45.28   77.97  45.488  77.973  45.536  77.961  45.838  77.928
  46.275      78  46.537  78.037  46.738  78.094  46.935  78.126  47.245  78.147
  47.589  78.163  47.875  78.204  48.042  78.177  48.289   78.16  48.677  78.097
  48.922  78.084  49.095  78.051  49.248  78.063  49.394  78.096  49.734  78.135
  50.073  78.124  50.246  78.109  50.441   78.14  50.793  78.156  51.301  78.112
  51.446  78.085  51.558  78.088  51.872  78.083  52.726    78.1  52.925  78.113
  53.234  78.036   53.83  77.968  54.012  77.972  54.349  77.838  54.846  77.848
  55.042  77.821  55.455  77.464   55.99  77.499  56.333  77.415   56.56   77.27
  59.049  75.852  62.074  74.082  62.351  74.081  62.515  74.059  63.274  73.864
  63.441  73.928  64.287  73.865   65.69  73.844  66.057  73.834  66.537   73.83
  67.014  73.796  67.657  73.874  68.786  73.892  69.291  73.892  69.906  73.772
   70.42  73.772  71.035  73.799  71.555  73.804  72.159  73.825  72.686  73.788
  73.284  73.782  73.718  73.831  73.844  73.773  75.371  73.811  81.235  73.939
  82.182  73.868  82.267  73.904  83.788  73.979  84.139  74.032  84.605   74.11
  99.408  74.062 106.185  73.897 107.975  73.873 108.073  73.895 108.088  73.918
 108.396  73.861 110.038  73.759 110.336  73.745 111.443  73.775 112.317  73.821
 112.585  73.823 113.429    73.8 113.704    73.8 114.565  73.815  114.83  73.818
 115.694   73.81 115.951  73.799 116.818  73.783  117.07  73.792 118.197  73.772
 119.083  73.788 119.315  73.794 120.211   73.85 120.437  73.856 121.337    73.8
 121.557  73.794 122.465  73.729 122.675  73.747 123.594  73.788 123.804  73.769
 124.724  73.761 124.923  73.757 125.851   73.84 126.041  73.833 126.987  73.784
 127.168  73.793  127.35  73.736 129.246  73.861 129.407  73.904 130.368  73.784
 130.526  73.804 131.506  73.829 131.655  73.809 132.774   73.82 133.765  73.768
 133.876  73.764 134.936  73.802 135.006  73.816 136.137  73.805 136.148  73.801
 139.215  73.837 139.505  73.842 139.514  73.837 139.833  73.878 140.621  73.912
  140.96  74.026 141.615  74.498 141.762  74.804 141.886  74.973 142.395  76.069
 142.509  76.289 143.257  76.903 143.279  76.907   143.9   77.17 144.374  77.396
 144.999  77.564 145.413  77.631 146.117  77.739  146.42  77.829 147.392   77.84
 148.369   77.82 149.356   77.87 150.313  77.791 151.314    77.8 151.714  77.787
 152.361   77.85 152.833  77.856 153.412  77.949 153.962  77.802 154.398   77.88
 155.081  77.874 155.419   77.83 156.471  77.791 157.529   77.86 158.551   77.76
 159.612   77.77 160.149  77.773 160.702   77.81 161.356  77.772 161.817  77.829
 162.913  77.936 162.938  77.937 163.925  77.723 164.974  77.665 165.007  77.662
 166.104   77.73 167.247  77.719 168.305   77.66 168.338  77.662 169.415  77.662
 169.872  77.672 170.544  77.661 171.098  77.647 171.718  77.669 172.344  77.657
 172.867  77.711  174.06   77.72   175.2   77.67 176.323  77.709 176.368  77.708
 177.462   77.66 178.649    77.7 178.695  77.698 179.818  77.698 181.051  77.729
 181.504  77.668 182.179  77.729 182.772   77.67 183.422  77.708  184.02  77.638
 184.553  77.689 185.291  77.645 185.758  77.723 185.815  77.725 186.545  77.616
 186.906  77.602 187.576   77.59 188.097  77.573 188.164  77.575 189.292  77.566
  189.36  77.562 189.817   77.59 190.534  77.665 190.603  77.668  191.71  77.593
 191.779  77.591 192.933  77.619 193.003  77.617 194.147  77.617 194.288  77.622
  195.42  77.576 196.633  77.536 196.716  77.531 197.173  77.535 197.957  77.561
 198.443   77.55 199.087  77.543 199.694  77.505   200.3  77.492 200.954  77.554
  201.53  77.518 201.617  77.508 202.225  77.541  202.79  77.564 202.876   77.57
 203.475  77.563 204.003  77.506 204.101  77.504 204.749  77.601 205.251   77.55
 205.349  77.556 206.001  77.613 206.489  77.529 206.688  77.528 207.826  77.528
 207.928  77.525 209.092  77.606 209.195  77.605 210.331  77.559 210.435  77.561
 211.556  77.561  211.67   77.56 212.801   77.56 212.918  77.561 214.038  77.498
 214.155  77.488  215.31  77.551 215.429  77.548 216.583   77.62 216.702  77.625
 217.948  77.605 218.072  77.617 219.219  77.643 219.344  77.661 220.453  77.635
 220.582  77.626 221.677   77.53 221.818  77.508 222.904  77.402 223.047  77.383
 224.176  77.418 224.317  77.416 225.489    77.6 225.629  77.621 226.762  77.673
 226.904  77.692  228.18  77.762 228.333  77.767 229.457  77.793 229.611  77.792
 229.927  77.801 230.725  77.844  230.88  77.856  231.98  77.847  232.14  77.839
 232.398  77.836 233.241  77.856   233.4  77.864 233.624   77.86 234.494  77.889
 234.669  77.892 235.765  77.934 236.125  77.939 237.207   77.93 237.788  77.934
 238.485  77.992 238.674  78.003  239.01  77.942 239.747  78.012 239.938  78.008
 240.248  77.989 241.025  78.058 241.217  78.077 241.468  78.065 242.283  78.085
 242.481  78.076 242.696  78.053 243.537  78.076 243.734  78.083 244.802  78.108
 245.003  78.109  245.21  78.131 245.671  78.211 246.468  78.435 247.276   78.68
 247.882  78.831 248.189  78.893 249.137  79.202 249.285  79.245 250.817  79.725
 251.059  79.789 251.902  79.973 252.042  80.007 253.382  80.516 253.669  80.581
 254.682  80.752 254.933  80.836 255.582  80.991 256.119  81.109 256.311  81.131
 256.817  81.244 257.437  81.345 257.545  81.385 258.893   81.79 259.273  81.813
 260.186  81.987 260.391  81.976 260.462  81.937 261.355  81.937 261.526  81.948
 261.713  81.932 262.332  81.938 262.567  81.991 262.735  81.937 263.878  82.007
 264.136  82.025 264.265  82.015 264.706  82.006 264.864   81.99 265.329  82.056
 265.455  82.077 265.542  82.082 265.874  82.127 266.002  82.118 266.731   82.21
  266.83  82.213 267.043  82.204 268.218  82.183 269.374  82.149 270.292   82.18
 270.575   82.17 270.949   82.15 271.472  82.126 271.614  82.129 271.703  82.139
 271.893  82.184 272.207  82.169 272.762  82.148 273.185  82.219 273.229  82.219
#Mann= 3 , 0 , 0 
       0     .01       0       0     .01       0 273.229     .01       0
Bank Sta=0,273.229
XS Rating Curve= 0 ,0
XS HTab Starting El and Incr=73.879,0.3, 28 
XS HTab Horizontal Distribution= 5 , 5 , 5 
Exp/Cntr=0.3,0.1

Type RM Length L Ch R = 1 ,1047.72 ,252.8,252.8,252.8
XS GIS Cut Line=3
294462.1427750814368547.58934041294462.142775082 4368686.6626181
294462.1427750814368753.00475688
Node Last Edited Time=Jan/13/2021 14:26:02
#Sta/Elev= 424 
       0  80.098    .337  80.072    .478  80.128    .487  80.126    .592  80.112
    .668  80.117   1.478   80.08   1.503  80.081   1.681  80.165   1.731  80.159
   1.879  80.024   2.599  80.006   2.622  80.007    2.92  80.055   2.979  80.054
   3.075  79.979   3.721  79.952   3.742  79.952   4.177  79.961   4.243  79.962
   4.842  79.943   4.863  79.946   5.308  80.083    5.39  80.074   5.965  79.892
   5.982   79.89   6.522  79.971   6.612  79.975   7.096  79.967   7.112  79.963
   7.556  79.887   7.704  79.958   7.808  79.957   8.218  79.888   8.233  79.892
   8.714  79.913   8.854  79.897   9.018  79.943    9.35  79.916   9.362  79.918
   9.846  79.888   9.993  79.882  10.242    79.9  10.482  79.956  10.491  79.957
  10.523  79.958   11.16  79.859  11.602  79.861  11.611   79.86  11.643  79.859
  12.289  79.869  12.734  79.859  12.741  79.859  12.764  79.858  13.457   79.76
  13.856  79.761  13.861  79.761  13.875   79.76  14.571  79.778  14.967  79.741
  14.971   79.74  14.986  79.742  15.718  79.755  16.109  79.741  16.111   79.74
  16.117   79.74   16.92  79.726  17.227  79.721  17.234   79.72  18.302  79.682
  18.325   79.68  18.361  79.681  18.869  79.694  19.438  79.662  19.494  79.662
  20.546  79.692  20.568  79.688  20.634  79.692   21.66   79.63  21.678  79.625
   21.78  79.624  22.791  79.599  22.802   79.59  22.923  79.587  22.938   79.59
  23.925  79.537  24.039  79.535  25.038  79.554  25.052  79.554  25.172  79.549
  26.159   79.54  26.186  79.546  26.309  79.541  27.273  79.533  27.322  79.535
  27.436  79.531  28.391  79.573  28.455  79.591  28.567  79.575  29.494  79.484
  29.588  79.487  29.687  79.477  30.623  79.485   30.73  79.491  30.807  79.478
  31.723  79.454  31.857  79.467  31.924   79.45  32.835  79.466  33.003  79.478
  33.887  79.479   33.94  79.468   34.14  79.468  35.021  79.491  35.061  79.477
  35.274   79.52  36.142  79.513  36.158   79.49  36.392  79.481  36.412  79.497
   37.27  79.543  37.499  79.543   37.55   79.55   38.42  79.656  38.613   79.67
  38.695  79.678  39.545  79.602  39.708   79.62   40.56  79.652  40.808  79.654
  40.957  79.657  41.806   79.68  41.919   79.67  42.108  79.657  42.944  79.628
  43.028  79.618  43.235  79.628  44.064  79.687  44.113  79.713   44.36  79.708
  44.945  79.716  45.041  79.716  45.111   79.69  46.042  79.675  46.294  79.688
  46.308   79.67  46.546  79.695  47.381  79.726  47.425  79.731  47.642  79.713
  48.476  79.793  48.556  79.784  48.738  79.807  48.862  79.806  49.674  79.726
  49.818  79.746  50.639  79.682  50.915  79.644  51.115  79.601  51.918  79.514
  52.009  79.516  52.239  79.448  52.557  79.314  52.654  79.344   53.05   79.34
  54.346  78.231  55.615  77.376  58.636   75.39  59.346  74.924  59.481  74.839
  59.674  74.702  59.716  74.686  60.639  74.171  60.742  74.121  60.835  74.088
  61.111  74.062  62.023  74.007  62.438  74.059  63.407  74.037   67.68  74.002
  72.236  74.011  73.438  74.026  73.777  74.069  74.001  74.107   74.52  74.181
  75.341  74.257  76.601  74.501  79.156  74.894  79.526  75.026   79.57  74.909
  81.173  74.934  82.316  74.946  83.106  74.978  83.302  74.965  83.379  74.983
  84.205  74.827  84.277  74.806  84.361  74.809  84.429  74.765  84.529   74.77
  85.369  74.733  85.401  74.741   85.52    74.7  85.569  74.658  85.676  74.666
  86.502   74.76  86.519  74.769  86.617  74.819  86.737   74.83   87.56  74.785
  88.008  74.754  88.906  74.634  89.835  74.878  89.845   74.88  89.947  74.871
   90.44   74.99  90.479   74.92  91.029      75  91.031      75  91.619   75.05
   91.68   75.12  92.259   75.24  92.261   75.24  92.291  75.259  92.368  75.306
  92.387   75.31  93.418   75.29  94.746  75.399  94.765    75.4  95.066  75.334
   95.11  75.324  95.394  75.298  95.763  75.208  96.013  75.219  96.032  75.218
  96.782  75.116  98.101   75.44   98.17  75.449  98.225  75.472  98.266   75.48
  98.989  75.518 100.414  75.517 100.485   75.52 100.493   75.52 100.508  75.519
 100.538  75.518 100.764  75.536 101.275  75.508 101.336   75.51 102.502  75.546
 102.822  75.463 102.881  75.459 103.422  75.487 103.639  75.441 103.698  75.434
 104.351   75.43 104.447  75.311 105.304  75.487 105.382  75.502 107.093  75.512
 107.264  75.504 107.317    75.5  107.93  75.429 108.191  75.419 108.302  75.401
 109.133  75.201 110.481  75.322 110.584  75.329 110.622  75.327 110.664  75.314
 111.217  75.157  111.44  75.083 111.511  75.085 112.274  75.142  112.41  75.151
 112.498  75.146 113.278  75.143 113.958  75.106 114.747   75.23 115.447  75.199
 115.566  75.185 116.281  75.304 116.382  75.318 116.698  75.238 117.228  75.191
 117.328  75.185 117.826  75.249  118.24  75.194 118.338  75.179 118.946  75.157
  119.25   75.16  120.03  74.717 120.094  74.695 120.107    74.7 120.906  74.404
 120.934  74.372 120.982  74.287  121.27  74.273  124.65  74.067 126.084  73.996
 126.126  73.962 126.701  74.004 128.989   73.99  129.36  73.957 130.106   73.97
 130.482  74.013 131.223   74.02 131.602   74.03 132.347  73.984 132.734  73.981
 133.466   74.02 133.855   74.02 134.247  73.989  135.72  73.918 136.116  73.921
 136.511  73.942 139.073   73.94 139.812   73.94 141.309  73.917 143.712  73.879
 144.183  73.885 145.173  73.937 145.477  73.978 154.167  74.159 154.974  74.147
 155.018  74.128 155.069  74.181 155.577  74.121 155.791  74.183  155.97  74.291
 162.491  77.538 163.542  78.055  163.62  78.075 164.208  78.164 164.451  78.151
 164.862  78.136 165.889  78.256 166.109  78.278 166.796  78.285 167.042  78.293
 167.317   78.23  167.54  78.228 168.302  78.237 168.533  78.236 168.755   78.24
 169.579  78.241 169.749  78.232 169.973  78.216 170.841  78.177 170.981  78.232
 171.208  78.234 172.118  78.187 172.181   78.17  172.41  78.156 173.415   78.18
 173.641  78.194 174.656   78.21 174.881  78.196 174.918  78.156 175.884  78.196
 176.113  78.202 176.202  78.178 177.109  78.194 177.339  78.194  177.48   78.17
   178.6   78.17 178.665  78.157 178.859  78.104 179.778  78.216 179.846  78.217
 180.055  78.234 180.279  78.187 181.041   78.17 181.299  78.179 181.521  78.145
 181.795  78.166 182.503  78.126  182.81  78.119  183.55  78.245 183.781  78.262
 184.114  78.238 184.361  78.247 185.382   78.27 186.411  78.231 186.687  78.209
 186.919  78.184 187.477  78.076 188.292  78.161 188.867   78.23 188.975  78.227
 189.773  78.143  190.04   78.11 190.831  78.089 191.458    78.1 191.974  78.091
   193.5  78.098 193.971  78.067 194.504  78.019 194.755   78.03  195.22  78.078
 195.759  77.952 196.009  77.963 196.437  77.953  197.05  78.034 197.304      78
 198.311  77.992 198.566  77.988 198.959  77.926 199.188   77.92 199.825  77.973
 200.228  77.967 200.462   77.98 201.084  77.948 201.468  77.956   201.7  77.972
 202.373  78.058 202.759  78.091     203  78.078 203.629  77.991 203.888  77.977
 204.224  77.939  204.89  77.931 205.146   77.94 205.416  77.964
#Mann= 3 , 0 , 0 
       0     .01       0       0     .01       0 205.416     .01       0
Bank Sta=0,205.416
XS Rating Curve= 0 ,0
XS HTab Starting El and Incr=74.029,0.3, 20 
XS HTab Horizontal Distribution= 5 , 5 , 5 
Exp/Cntr=0.3,0.1

Type RM Length L Ch R = 1 ,794.92  ,203.23,203.23,203.23
XS GIS Cut Line=3
294712.4969957084368533.92283262294712.4969957084368661.27163338
294712.4969957084368810.43268919
Node Last Edited Time=Jan/13/2021 15:09:55
#Sta/Elev= 490 
       0      86   2.093  85.448   4.665  84.987   5.392  84.897   5.873  84.869
   6.379  84.795    6.74  84.711   7.116  84.641   7.339  84.658   7.592  84.711
   7.852  84.683   8.236  84.556   8.547  84.502   8.846  84.467   8.955    84.4
   9.346  84.469   9.703  84.444  10.065  84.394  10.461  84.396  10.896  84.265
  11.178  84.237  11.227  84.365   11.56  84.187  12.002   84.23   12.29  84.248
    12.5  84.163  13.176  84.248  14.386  84.133  14.525  84.099  14.801  84.101
  15.315   83.85  15.621  83.848  16.031    83.9   16.44  83.856  16.738  83.813
  17.197  83.814  17.538    83.7   17.86  83.641  18.227  83.612   18.38  83.626
   18.97  83.554  19.341  83.486  19.553  83.529  19.755  83.462  20.083  83.429
   20.42  83.368   20.45  83.384  20.867  83.394    21.2  83.391  21.571   83.37
  22.303  83.308  22.422  83.317  22.681   83.28  23.077  83.259  23.423  83.221
  23.596  83.246  23.794  83.196  24.182   83.16  24.772   83.17  24.911  83.148
   25.65  83.075  25.942  83.075  26.417  82.992  26.763  82.957   27.11  82.949
  27.518   82.87  27.887   82.84   28.28  82.831  28.634    82.8  29.351  82.706
  29.431  82.722  29.741   82.73  30.114  82.717  30.467   82.65  30.854   82.63
  31.583  82.628   32.34  82.492  32.691  82.464  33.064   82.46  33.453  82.439
  34.177  82.341  34.567  82.344  34.927  82.358  35.673  82.236  35.843  82.252
   36.03  82.186  36.789   82.15  36.997   82.17   37.14  82.111  37.497  82.112
  37.899  82.061  38.147  82.042  38.254  82.006  38.614  81.991  40.122  81.892
  40.423  81.883  40.472  81.856  41.242  81.891  41.592  81.875  42.351  81.699
  42.692  81.646  43.034  81.625  43.461  81.583  43.806  81.536  44.144  81.552
  44.579  81.545  44.928  81.482  45.694  81.364  46.042  81.355   46.82  81.352
  47.926  81.192  48.595   81.12  49.696  80.945  50.151  80.854  50.472  80.805
  50.786  80.739  51.266  80.691  51.586  80.687   52.38  80.591  53.489   80.42
  53.802  80.377  54.106   80.37  54.614  80.338  54.922    80.3  55.215   80.24
  56.024  80.129  56.313  80.075  56.832  79.953  57.416  79.874  57.947  79.851
  58.247  79.823  59.061  79.691  59.361  79.653  60.176  79.615  60.477  79.583
  61.285    79.4  61.578  79.366  61.838  79.311    62.4   79.28   62.69   79.29
  63.515  79.215   64.63  79.079   64.92  79.062  65.171  79.011  65.744  78.954
   66.03  78.936  66.281  78.891  66.859  78.835  67.147  78.826  67.396  78.796
  67.969  78.765   68.26  78.766  68.511  78.745  69.384   78.74  70.204  78.705
  70.746  78.676  71.324  78.588  71.859  78.525  72.443  78.499  72.969  78.499
  73.558  78.483  74.089  78.459  74.678  78.491  75.216  78.554  75.786  78.704
  76.095  78.722   76.35  78.689  76.905   78.58  77.203   78.56  77.453  78.575
  78.323   78.54  78.573  78.481  79.135  78.456  79.436  78.507  79.688   78.49
  80.246  78.485  80.553  78.504  80.805  78.495  81.361  78.495  82.481  78.445
  82.793  78.467  83.045  78.465  83.597  78.524   83.92  78.567  84.179  78.565
  85.035   78.58  85.289  78.538  85.823  78.514  86.151  78.534  86.404  78.493
  86.933   78.47  87.261  78.505  87.519  78.475  88.053  78.456  88.381  78.454
  88.634  78.435  89.167   78.42  89.498  78.399  89.754    78.4  90.287  78.371
  91.407  78.255   91.73  78.229  91.977  78.178  92.522  78.115   92.85  78.092
  93.407  77.927   97.26  75.653  99.404  74.373  99.461  74.363  99.582  74.252
  100.12  73.903 100.239  73.915 101.099  73.925 104.882  74.115 105.107  74.153
 106.617  74.158 106.772  74.137 107.406  74.182 107.472  74.171 112.833  74.162
 127.349  74.062 133.682  74.018 136.484  74.023 144.628    74.1 148.571  74.203
 149.147  74.157 150.375   74.16 151.357  74.307 151.891  75.046 152.191    75.1
 152.869  75.541 153.301  75.797 153.411  75.845 153.862  75.967  154.44  76.054
 154.532  76.055 155.068  76.135 155.395  76.147 155.678  76.006 155.815  75.991
 156.264      76 156.817  75.991 157.348  76.012 158.064  75.876 158.472  75.854
  158.69  75.896  159.08  75.926 160.059   76.17 164.913  77.264 165.997  77.506
 167.547  77.843 167.722  77.806 168.163  77.802 168.538  77.832 168.964   77.89
 169.134  77.901 169.369  77.962 169.644  78.004 170.375    78.1 170.681   78.18