Geom Title=Site 1271 Geometry Data
Program Version=5.07
Viewing Rectangle= 417595.767014474 , 418040.791538158 , 183055.273908946 , 181900.702337536 

River Reach=patapsco river  ,RiverCL         
Reach XY= 21 
       417600.13       182028.65       417640.41       182049.26
       417704.68       182072.54       417762.19       182083.44
       417793.01       182120.24       417813.36       182185.41
       417826.13       182246.63       417832.92       182324.93
       417843.14       182388.27       417874.08       182458.06
       417894.64       182504.44       417906.05       182541.65
       417897.97       182614.06       417886.18       182674.55
       417880.29       182708.12       417850.38       182782.42
       417799.53        182851.8        417764.3       182880.99
       417692.66        182940.5       417631.22       182961.06
       417600.79       182978.15
Rch Text X Y=417600.295,182266.025
Reverse River Text= 0 

Type RM Length L Ch R = 1 ,1155.06 ,178.87,178.87,178.87
XS GIS Cut Line=3
417641.923095823182857.138132678417671.988275154182947.417317927
417704.137547246183043.954579815
Node Last Edited Time=Jan/02/2021 15:53:18
#Sta/Elev= 161 
       0      74    .657  73.759  20.502  66.544  23.993  65.029  24.468  65.066
  25.435  64.894  26.091  64.735  26.729  64.421  27.305  64.165  28.268  64.007
  28.463  63.945  30.094  63.489  30.165  63.471  30.241  63.468  31.846  63.824
  32.751  63.884  33.547  63.844    34.9  63.967  35.038   63.99  35.172  63.968
  36.429  63.583  36.807  63.461  37.706  63.618  38.025  63.628  38.814  63.315
   40.12  63.336  40.257  63.339  40.318  63.337  42.056  63.262  42.996  63.165
  43.826  63.168  44.863  63.005   45.48  62.965  45.787  62.948  47.238  62.918
  48.137  62.791  48.765  62.669  49.057  62.661  50.613  62.474  51.795  62.401
    52.6  62.346  54.222  62.349  55.159  62.329  55.845  62.348  56.274  62.396
  57.629  62.376   58.64  62.426  60.901  61.721  61.976  61.441   63.95  60.831
   65.08  60.493  66.113  60.036  66.869  59.888  68.001  59.687  68.307   59.63
  68.526  59.692  69.725   59.65   70.31  59.566   70.88  59.584  71.977  59.675
  72.405  59.698   72.51  59.696  73.525  59.659  74.115  59.666  74.832  59.744
  76.593  59.633  78.028  59.575  78.247  59.563   78.69  59.485  79.965  59.295
  81.067  58.849  82.991  58.338   83.35  58.322  84.236  58.331  85.044  58.348
  85.338  58.356  87.115  58.331  87.969  58.332  88.896   58.37   90.27  58.411
  90.672  58.423  92.044  58.401  92.447  58.394  92.596  58.391  94.357  58.421
  95.079  58.419  95.154  58.416  96.245  58.386  97.575  58.454  98.222  58.472
   99.96  58.461 100.043   58.46 100.065  58.458 101.847   58.38 102.444  58.403
 103.781   58.41 104.812  58.404 105.747  58.386 107.239  58.352 107.546  58.353
 108.741  58.283 109.288  58.259 109.663   58.26 111.726  58.372 112.744   58.34
 113.723   58.37 114.766  58.361 116.227  58.541 117.031  58.597 117.486  58.891
 117.771  59.188 119.001  60.569 119.041  60.582 120.433  61.431 120.591  61.469
 120.943  61.652  121.15   61.59 122.419  61.737 123.682  61.772 124.036  61.758
 125.319  61.728 125.802  61.726 125.939  61.714 127.614  61.919 127.929  61.919
 129.116  61.879 129.871   61.84 130.676  61.825 131.684  61.834 132.019  61.815
 133.329   61.78 133.601   61.79 133.927  61.761 136.533   61.66 137.399  61.699
  138.52  61.745 141.492  61.679 142.797  61.674 143.168  61.655 143.502  61.724
 144.419  61.744  147.95   61.73 147.952   61.73 149.568  61.829 149.882  61.834
 150.581  61.877 152.271  61.869 152.406  61.841  153.47   61.88 154.326  61.764
 155.529   61.78 156.283  61.792 156.973  62.026  157.58  61.803 157.626  61.787
 157.643  61.788 157.654  61.793 157.662  61.792 158.213  62.047 176.902  70.783
 196.904      80
#Mann= 3 , 0 , 0 
       0     .04       0       0     .04       0 196.904     .04       0
Bank Sta=0,196.904
XS Rating Curve= 0 ,0
XS HTab Starting El and Incr=58.409,0.3, 72 
XS HTab Horizontal Distribution= 5 , 5 , 5 
Exp/Cntr=0.3,0.1

Type RM Length L Ch R = 1 ,976.19  ,129.59,129.59,129.59
XS GIS Cut Line=3
417708.426551724182759.002413793417810.281745285182837.129975757
417925.698995169182925.660251208
Node Last Edited Time=Jan/03/2021 19:12:32
#Sta/Elev= 205 
       0      90    .283  90.054    .461  89.972   1.188   89.85   1.731  89.676
   1.863  89.692   2.088  89.557   3.321  89.315   3.964  89.221   4.999  88.955
   5.741   88.77   6.019  88.701   6.144  88.655   7.732  88.396   8.518  88.159
   9.132  87.801   9.794  87.624  10.712  87.519  10.753   87.51  12.181  86.997
  12.421  86.919   12.91   86.79  14.205  86.448  15.062  86.276  15.895  86.123
  16.257  86.043   17.64  85.689   19.49   85.23   19.58  85.204  20.942  84.819
  21.185   84.75  21.187   84.75  21.203  84.745  23.344  84.169  24.006  83.935
  24.966  83.622  25.449  83.528  25.997  83.293  26.593  83.127  26.728  83.065
  27.855  83.008  28.025  82.944  28.942  82.717  29.405  82.487  29.771  82.464
   30.01  82.235  30.708  81.931  31.451  81.558  31.768  81.433  33.148   81.03
  33.581  80.893  34.156  80.617  35.661  80.074  36.698  79.685  37.324  79.421
  37.447  79.721  38.735  79.389   39.18  79.233  39.607  79.212  39.737   79.04
  39.821  79.039  40.959  78.133   41.16  78.152  41.316  78.097  42.689  77.593
   43.08  77.398  44.465  76.864  45.961  76.626  46.666  76.344  47.151  76.116
  48.177  75.566  49.028   74.91   49.43  74.706   50.82  74.305  51.247  74.318
  52.241  73.939   53.45  73.197  54.095  72.905  54.751  73.159  55.776  72.121
  56.308  72.134  56.871   72.24  57.006  72.147  57.441  71.463  57.711  71.352
   58.46   71.32  58.605  71.367  58.727  71.286  63.957  68.526  68.297  66.731
  70.909  65.815  75.196  63.514  76.006  63.501  76.344   63.48  76.623  63.476
  78.029  63.418  78.489  63.408  80.019  63.382   81.37   63.39  82.327  63.396
  84.199  63.335  84.324   63.33   85.09  62.884  92.299  58.118  93.317  58.118
  94.035  58.124  95.151  58.107  96.075  58.098 100.997  58.241 102.171  58.288
 108.305  58.307 113.768  58.246 114.825  58.122 115.781  58.032 116.584  58.012
 118.061  58.051 118.573  58.058 120.139  58.024 120.373  58.024 121.874  58.003
 122.149      58 122.214  57.998 123.819  58.028 124.187  58.021 125.384  57.946
 126.337  57.945 127.278   57.96 128.368  57.965  128.75  57.967 129.077  57.983
   130.8  57.861 130.814   57.86 132.422  57.909 132.652  57.893 135.118  57.937
 136.136   57.95 137.235  57.965 138.156  57.972 138.855  57.984 139.989  57.962
 140.458  57.953 141.818   58.02 143.635   57.98 143.644  57.979 143.694  57.981
 145.681  58.034 146.015  58.021 147.321  57.964 148.047  57.984 149.021  58.011
 150.081  57.965  150.72  57.963 152.423   58.05  152.68  58.043 153.872   58.61
 154.403  58.871  154.47  58.939 154.655  58.977 156.493  60.257 156.601  60.359
 157.858  60.287 158.712  60.417 159.193   60.35 160.265  60.588 161.236  60.687
 161.275  60.686 162.026  60.678 162.075  60.682   162.1  60.682  162.35  60.689
 164.139  60.728 164.608  60.738 165.924  60.617 166.371  60.622 169.315  60.679
 171.268  60.628 172.818  60.604 173.913  60.586  174.88   60.49 176.798  60.385
 176.913  60.383 176.933  60.382 178.322  60.573  178.59  60.593 179.995  60.738
 180.949  61.272  181.03  61.307 181.091  61.346 182.987  62.005 183.662  62.417
  184.04  62.566 184.976  62.868 185.491  62.971 185.671  63.257 187.981  63.519
 188.574  63.512 188.778  63.526 190.349  63.582 190.982  63.603 191.676  63.621
 196.697  66.191 224.737   75.63 227.066  76.405 242.564  83.961 273.829      90
#Mann= 3 , 0 , 0 
       0     .01       0       0     .01       0 273.829     .01       0
Bank Sta=0,273.829
XS Rating Curve= 0 ,0
XS HTab Starting El and Incr=58.01,0.3, 100 
XS HTab Horizontal Distribution= 5 , 5 , 5 
Exp/Cntr=0.3,0.1

Type RM Length L Ch R = 1 ,846.6   ,151.38,151.38,151.38
XS GIS Cut Line=3
    417763.42625182670.955833333417873.442150225182725.129400199
418012.552900158182793.629730586
Node Last Edited Time=Jan/03/2021 19:37:52
#Sta/Elev= 160 
       0      86    .813  85.875   3.605  85.256   3.688  85.239   3.697  85.235
   5.082   84.86   5.862  84.733   6.546  84.527   7.437  84.432    8.03   84.27
   8.935  84.088   9.304  83.982   9.626  83.912  10.574  83.698  11.312  83.506
  11.839  83.319  13.177  83.192  13.324  83.172  13.351  83.154  13.563  83.086
  14.951    82.6  15.427  82.524  16.096  82.392  16.843  82.273  17.116  82.238
  17.536  82.205  17.585  82.196  17.607  82.193  19.379  81.811  19.704  81.873
  20.897  81.688   21.38  81.603  21.793  81.493  22.707  81.438  23.369  81.302
  23.613  81.291  24.616  81.033  24.626   81.03  24.632  81.029  25.682  80.786
  26.058  80.746  26.978  80.608  27.548  80.448  28.363  80.249  29.284  79.948
  29.557  79.881  29.878  79.955  30.549  79.829   31.72  79.484  32.954  79.298
  34.105  78.799   34.58  78.608  35.651  78.224  36.217  78.028  37.323  77.475
  37.416  77.437  37.523  77.446  37.697  77.468  39.137   77.72  39.668  77.802
  40.012  77.721  40.113  77.668  54.631  68.586  64.139  63.421  65.631  63.318
   68.79  63.182  70.111  63.158  71.087  63.079  71.528  63.026   71.96  63.054
  74.113  63.027   74.57   63.02  74.837   63.02   75.34  63.051  76.863  63.126
  78.136  63.138  78.402   63.15  78.536  63.129  79.075  63.164  80.064  63.113
  81.901  62.934  82.676  62.898  83.232  62.884  87.535  60.907  89.871   59.97
  91.214  59.941   92.18  59.815  92.585  59.903  93.567  59.923  94.155  59.931
   95.24  59.887  99.728  59.246  99.945  59.166  100.45  59.005 100.618  58.965
 101.567  58.644 102.724   58.04 103.218  58.018  104.43   58.01 106.193  57.949
 108.013  57.901 108.087    57.9 108.356  57.898 109.665  57.896 110.323  57.873
 111.219  57.869 113.033   57.92 113.047   57.92 114.349   57.87 114.797  57.857
 116.197  57.869 117.066  57.849  117.67  57.865 119.036  57.952 119.346  57.945
 120.249  57.943 120.867  57.936 121.199  57.944 122.309  57.945 122.631  57.925
   123.4  57.877 123.756  57.883 124.428  57.875 125.273  57.879 126.102  57.904
 127.717  57.907 128.581  57.944  131.33  57.913 131.608  57.897 131.834  57.899
 133.346  57.978  139.53  58.211 139.752  58.306 169.622  67.625 174.952  69.212
 182.506   71.42 182.971  71.489 185.219  72.608 221.728  88.942 243.214  96.968
 244.975  97.496 246.616  97.768  251.58  99.945  253.82 100.749 254.294 100.822
 255.866 101.102 255.923 101.116 256.264 101.229 256.407 101.248 257.591 101.357
 258.535 101.723 260.829  101.89  261.73 101.785 262.175 101.875 263.136 102.086
 263.846 102.251 265.338 102.618 265.647 102.694 266.764 102.831 277.692     102
#Mann= 3 , 0 , 0 
       0     .03       0       0     .03       0 277.692     .03       0
Bank Sta=0,277.692
XS Rating Curve= 0 ,0
XS HTab Starting El and Incr=57.999,0.3, 100 
XS HTab Horizontal Distribution= 5 , 5 , 5 
Exp/Cntr=0.3,0.1

Type RM Length L Ch R = 1 ,695.22  ,253.89,253.89,253.89
XS GIS Cut Line=3
417785.622030534182546.455282443417902.110731044182576.952093449
418036.428552632182612.116578947
Node Last Edited Time=Jan/04/2021 15:44:10
#Sta/Elev= 187 
       0      66  13.355  64.591  14.114  64.407  14.891  64.192  15.899   64.07
  16.524  64.053  17.441  63.858  17.748  63.794   17.96  63.762  20.157  63.624
  20.768  63.595  21.901  63.504  22.161   63.45  23.067  63.316  23.451  63.252
  23.729  63.212  24.887  63.029  25.558  63.006  26.126  62.888  26.231  62.872
  26.329  62.874  27.956  62.828  28.259   62.82  28.277  62.818  28.308  62.815
  29.945  62.578  31.173   62.56  31.793  62.615  32.222  62.527  33.366  62.561
  34.426   62.63  34.443  62.628  34.858  62.517  35.684  62.633  35.815  62.555
  40.073  62.605  41.043  62.671  42.175  62.635  42.624  62.614  43.647  62.526
  44.629  62.468  44.978  62.432  46.524  62.285  46.795  62.284   47.15  62.309
  48.438  62.358  49.378  62.282  50.171  62.202  51.363  62.104  52.768  61.968
  53.349  61.974  53.871  61.989  54.519   61.91  54.976  61.848  55.627  61.854
  56.477  61.849  57.172  61.771  58.703  61.841  59.028  61.737  59.634  61.608
  60.877  61.689  62.303  61.739  63.103  61.757  63.436  61.764  63.866   61.78
  65.498  61.847  66.335    61.8  66.689  61.798  67.856  61.693  68.077  61.697
  68.344  61.626  68.659  61.647  69.966  61.558   70.37  61.502  71.002  61.418
  71.765    61.3  72.697    61.1  73.661  60.691  74.263  60.569  75.088   60.58
  75.642  60.612  75.813  60.454  76.274  60.359  76.811  60.457  78.139  60.748
  78.146   60.75  78.154   60.75  79.018  60.613  80.268  60.704  82.493  60.817
  82.519   60.81  82.606  60.815  82.693  60.817  84.075  60.783    85.6  60.758
  87.425  60.826  87.747   60.83  87.851  60.831  87.969  60.828  89.064  60.806
  98.347  59.073 100.327  58.946 102.749   58.02 108.285  57.762 108.306  57.761
 108.329   57.76 112.375  57.764 114.129  58.003 114.622  58.017 115.897  57.968
 118.159  57.832 120.415  57.793 121.187  57.779 122.827  57.732 123.326  57.707
 124.268  57.695 126.421  57.719 130.252  57.841 131.112   57.88 131.432  57.874
 132.749  57.826 134.905  57.675 135.424  57.702  137.12  57.792  137.26  57.797
 138.323  57.717 139.368  57.697 140.093   57.69 141.463  57.675 143.183  57.782
 146.866  59.584 147.131  59.704 147.174  59.716 149.263  59.773 150.417  59.912
 151.683  60.159 153.624   60.53 154.478  60.446 154.979  60.405 156.673  60.471
 156.885  60.488 157.047  60.507  158.78  60.702  159.68  60.766 160.656  60.805
 162.537   60.93 164.446  60.877 165.498  60.908 166.178  61.037 167.111  61.038
 167.924  60.997 168.232  60.965 169.412  60.944 170.229  60.913  170.55  60.936
  171.97  61.124 172.917  61.201 173.525  61.142 173.672  61.123 175.127   61.37
 175.128   61.37 176.187  61.306 183.566  62.703 202.963  65.205 205.298  64.905
 206.295  64.956 208.475  64.821 215.307  65.123  216.75  65.043 218.511  64.604
  219.15  64.606 221.479  64.944 221.818  64.854 222.989  64.715 223.803    64.5
 225.987  64.034 229.116  63.287 229.765  62.963 230.889  62.926 231.406  62.729
  239.45  62.563 251.835  63.743 253.751  63.765 255.314  63.809 257.887  63.891
 258.888  63.993 259.259      64
#Mann= 3 , 0 , 0 
       0     .14       0       0     .14       0 259.259     .14       0
Bank Sta=0,259.259
XS Rating Curve= 0 ,0
XS HTab Starting El and Incr=57.825,0.3, 27 
XS HTab Horizontal Distribution= 5 , 5 , 5 
Exp/Cntr=0.3,0.1

Type RM Length L Ch R = 1 ,441.33  ,141.38,141.38,141.38
XS GIS Cut Line=3
417705.017503892182354.550607161  417834.7947332182336.564294733
418003.600797872182313.168829787
Node Last Edited Time=Jan/05/2021 12:23:41
#Sta/Elev= 79 
       0      76   1.342  75.901   1.557  75.845   3.848  75.222   4.475  75.205
   7.041  74.541  12.032   73.34  23.282  70.539  25.365   70.16  25.577  70.177
  26.869  69.838  26.946  69.814  27.325  69.757  27.487  69.761  27.754  69.606
   28.28  69.457   28.94  69.285  29.794  69.153  41.397  67.074  42.833  66.864
  51.706  65.351  66.893  62.251  73.385  60.983  74.664  60.775  78.722  60.617
  85.338  59.334  87.832  59.227  93.548  57.887   96.79  57.136  97.235  57.173
  98.165  57.154 101.349   57.02 102.151  57.062  103.14  57.089 104.063  57.019
 106.403  56.965 106.755  56.992 107.749  56.982 109.082  57.011 110.814  57.032
 111.466  57.032 113.335  57.055 113.804  57.058 113.828   57.06 114.788  57.065
 125.683  57.091 131.018  57.112 137.165  57.137 137.515  57.092 138.044  57.093
 138.459  57.149 139.034  57.031 139.198  56.944 139.594   56.91 141.498    56.9
 142.474   56.91 143.035   56.93 144.162  56.963 145.187   56.94 145.808  56.961
 146.988  56.921 147.752   56.89 148.197  56.896 150.267  56.953 152.319  56.983
 153.226  56.963 156.846  57.069 159.401  57.104 159.733  57.112 161.678  57.528
 170.203  59.419 177.866  60.744 180.583   60.99 181.251  61.245 181.919  61.369
 184.335  61.686 184.432  61.687 280.733  91.637 301.437     104
#Mann= 3 , 0 , 0 
       0     .02       0       0     .02       0 301.437     .02       0
Bank Sta=0,301.437
XS Rating Curve= 0 ,0
XS HTab Starting El and Incr=57.04,0.3, 100 
XS HTab Horizontal Distribution= 5 , 5 , 5 
Exp/Cntr=0.3,0.1

Type RM Length L Ch R = 1 ,299.95  ,215.11,215.11,215.11
XS GIS Cut Line=3
417697.935103858182215.822284867417815.712521352182196.702564633
417961.898506085182172.971061687
Node Last Edited Time=Jan/05/2021 13:51:38
#Sta/Elev= 84 
       0      64   3.205   63.63  15.854  62.097   16.96  62.174  17.197  62.131
  17.277  62.069  17.829  61.824  18.411  61.946  21.946  62.018  23.265  61.966
  23.592   61.87  24.996  61.565   25.55  61.591  25.989  61.617  26.896  61.565
  27.293  61.533  28.203  61.648  28.288  61.667  29.779  61.506  30.803  61.533
  30.872  61.554  31.061  61.547  31.997  61.544  34.249  61.448   34.57  61.433
  34.761  61.433  34.796  61.432  35.013  61.401  36.192  61.302   36.21  61.299
  38.424   61.38  39.345  61.273  40.108  61.174  43.573  60.695  43.915  60.637
  44.338  60.628  46.376  60.618  48.033  60.768  49.113  60.789  50.034  60.807
  52.834  60.756  54.088  60.766  67.603  59.668   72.96  59.207  86.625  58.014
  93.754  57.498 103.258  56.792 105.153  56.866 105.894  56.905 109.078  57.008
 109.115   57.01 109.144  57.009 109.184  57.009 111.764  56.952 113.854  56.953
 118.142  56.887 119.319  56.857 120.349   56.83 121.696  56.922 121.869  56.924
 122.151  56.903 123.852  56.796 124.722  56.767  126.01  56.768  128.26  56.691
 128.286   56.69 128.349  56.693 130.301  56.756 131.114  56.757 133.378   56.71
 134.572  56.726 135.979  56.713 137.286    56.7 138.076  56.723 140.291  56.772
 142.554  56.754  142.78  56.751 142.889   56.75 145.625  57.118 161.053   59.24
 168.491  60.309 180.757  62.473 191.016  64.887 267.419      80
#Mann= 3 , 0 , 0 
       0     .02       0       0     .02       0 267.419     .02       0
Bank Sta=0,267.419
XS Rating Curve= 0 ,0
XS HTab Starting El and Incr=56.84,0.3, 77 
XS HTab Horizontal Distribution= 5 , 5 , 5 
Exp/Cntr=0.3,0.1

Type RM Length L Ch R = 1 ,84.84   ,,,
XS GIS Cut Line=3
417653.118069337182186.186401674417677.634819707182062.743773464
417707.569505327181912.021666667
Node Last Edited Time=Jan/05/2021 15:53:29
#Sta/Elev= 74 
       0      66  37.963  62.326  38.088  62.317  38.137  62.314  38.168  62.307
  38.322  62.286  39.345  62.106  39.847  62.018  39.928  62.005  40.966  61.675
  41.245  61.554  41.295  61.545  43.633  61.839  44.316  61.812  44.605  61.804
  45.097  61.773  45.514  61.774      48  61.839  48.798  61.776  49.283  61.737
  50.822  61.592  51.469  61.567  51.841   61.56  53.024  61.552  54.779  61.565
  56.002   61.63  56.299  61.615  57.033  61.651   57.37  61.662  57.865   61.65
   59.23  61.597  60.371  61.531  62.019  61.443  62.143  61.426  62.269  61.425
  62.679   61.46  64.416  61.356  66.082   61.25  66.891   61.23  68.814  61.157
  69.378  61.158  70.635  61.108  71.758  60.981  72.932  60.932  73.696  60.862
  74.662  60.847  98.618  57.469 100.504   57.26 104.721  56.533 106.224  56.471
   107.9  56.405 109.789   56.29 110.357  56.321 111.094  56.316 114.167  56.275
 115.767  56.256 117.333    56.3 119.732  56.263 121.158  56.281 122.352  56.298
 122.686  56.307 122.812  56.301  123.23  56.306 125.854  56.292 130.705  56.267
 137.555  56.407 139.085  56.468 139.897  56.556 143.695  58.232 154.923  63.132
 164.789  66.284 180.313  70.285 185.924  71.591  279.52      76
#Mann= 3 , 0 , 0 
       0     .04       0       0     .04       0  279.52     .04       0
Bank Sta=0,279.52
XS Rating Curve= 0 ,0
XS HTab Starting El and Incr=56.406,0.3, 65 
XS HTab Horizontal Distribution= 5 , 5 , 5 
Exp/Cntr=0.3,0.1

LCMann Time=Dec/30/1899 00:00:00
LCMann Region Time=Dec/30/1899 00:00:00
LCMann Table=0
Chan Stop Cuts=-1 



Use User Specified Reach Order=0
GIS Units=Meters
GIS DTM Type=
GIS DTM=
GIS Stream Layer=
GIS Cross Section Layer=
GIS Map Projection=
GIS Projection Zone=
GIS Datum=
GIS Vertical Datum=
GIS Data Extents=,,,

GIS Ratio Cuts To Invert=-1
GIS Limit At Bridges=0
Composite Channel Slope=5
