Geom Title=407 17B Geometry Data
Program Version=5.07
Viewing Rectangle= 1479804.24201863 , 1482305.43111358 , 716111.995358182 , 714825.729550909 

River Reach=deer creek      ,RiverCL         
Reach XY= 25 
      1479959.51       716025.71      1480039.07       715928.91
      1480098.81       715827.03      1480141.53       715770.35
      1480214.56       715669.32      1480338.92       715622.92
      1480463.42       715594.95      1480525.67       715602.31
      1480603.03        715625.5      1480734.03       715656.49
      1480870.32        715674.9      1481063.53       715714.73
       1481180.3       715734.63      1481291.35       715734.63
      1481460.79       715734.63      1481600.32       715697.42
      1481886.24       715611.08      1481946.65       715573.91
      1481997.51       715510.08      1482015.91       715435.36
      1482015.91        715320.2      1482003.01       715237.02
      1482003.01       715113.11      1481988.64       715014.46
      1481979.34       714838.34
Rch Text X Y=1480464.4675,715728.8675
Reverse River Text= 0 

Type RM Length L Ch R = 1 ,2844.14 ,229.17,229.17,229.17
XS GIS Cut Line=3
1482199.26029036714977.0719779861481986.66653372714977.071977986
1481801.89608287714977.071977986
Node Last Edited Time=Jan/14/2021 19:10:23
#Sta/Elev= 61 
       0 296.053  88.148 260.452  90.119 260.126 111.619 255.779 112.447 255.776
 142.958 250.857 161.097 246.318 165.184 246.319 167.447 246.127 169.226 246.189
 173.815 246.264 174.955 246.212 178.643 246.149 180.745 246.163  182.42 246.134
 185.823 246.237 187.419 246.273 191.349 246.167 194.099 246.136 196.685 246.259
 198.765 246.243 201.901 246.201 206.047 246.146  207.27 246.156 211.162   246.3
 212.594 246.271 212.957 246.264 218.149  246.13 219.255 246.132 223.322  246.25
 223.351  246.25 223.849 246.255 229.988 246.302  230.34 246.303 233.967 246.244
 235.453 246.243 240.005 246.114 242.833 246.117 245.461 246.172 249.955 246.187
  252.56 246.161 253.564 246.162 255.409 246.194 262.364 246.286 271.495 248.603
  302.61 255.678 319.974 259.026 323.064 259.357 325.486 259.353 329.422 259.277
 334.755 259.243 337.505 259.315 340.621  259.25 344.035 259.074 344.991 259.058
 345.906 259.049 360.253 260.594   361.6 260.778 361.905 260.813 362.108 260.828
 397.364     274
#Mann= 3 , 0 , 0 
       0     .01       0       0     .01       0 397.364     .01       0
Bank Sta=0,397.364
XS Rating Curve= 0 ,0
XS HTab Starting El and Incr=246.264,0.3, 100 
XS HTab Horizontal Distribution= 5 , 5 , 5 
Exp/Cntr=0.3,0.1

Type RM Length L Ch R = 1 ,2614.97 ,265.04,265.04,265.04
XS GIS Cut Line=3
1482280.90965186715212.8132653061482003.00755339715205.147664148
1481811.40854182 715199.86263171
Node Last Edited Time=Jan/14/2021 19:07:45
#Sta/Elev= 56 
       0     346  79.324 309.584   99.03 301.064   99.39 300.854  99.767 300.667
 111.384 295.728 235.498 247.881 239.791 247.682 243.064 247.638 246.365 247.635
 247.509 247.651 249.701 247.689 251.856 247.651 255.148 247.731 257.349 247.659
 259.428 247.659 262.511 247.627 263.008  247.62  267.44 247.718  268.32 247.722
 270.438 247.667 272.281 247.623  273.13 247.632 276.681 247.673 278.008 247.657
 278.204 247.654 279.735 247.667 281.952 247.631 283.318 247.595 286.627 247.573
 289.247 247.578 291.028 247.549 293.951 247.488 295.119  247.53 298.229 247.552
 299.501 247.554 302.716 247.596 303.368 247.619 306.581 247.706 308.823 247.667
 311.478 247.685 316.301  247.74 317.711 247.765 318.833 247.779 319.816 247.753
 374.357 255.395 382.853 256.562 386.457 257.068 389.853  257.47 390.319 257.447
 392.931 257.396 395.097 257.379 397.917  256.59 398.586 256.437 405.764 258.713
  469.68     278
#Mann= 3 , 0 , 0 
       0    .001       0       0    .001       0  469.68    .001       0
Bank Sta=0,469.68
XS Rating Curve= 0 ,0
XS HTab Starting El and Incr=247.638,0.3, 100 
XS HTab Horizontal Distribution= 5 , 5 , 5 
Exp/Cntr=0.3,0.1

Type RM Length L Ch R = 1 ,2349.93 ,423.46,423.46,423.46
XS GIS Cut Line=3
1482178.59555247715557.0438811771482007.82157497715468.218816806
1481807.20009756715363.869103189
Node Last Edited Time=Jan/14/2021 14:04:13
#Sta/Elev= 55 
       0     318  47.376 291.651  60.348 285.422  79.855 276.878  83.208  275.52
  123.51 259.033 148.983 249.164 151.194 249.112 156.668 249.208 157.995 249.259
 159.429 249.243 162.339 249.303  163.62 249.243 166.999 249.071 175.018 249.301
 175.698 249.329 179.873 249.284 180.501 249.295 182.449 249.318 185.516 249.368
 187.832 249.402 192.493 249.455 192.598 249.456 196.391 249.476 200.171 249.507
 203.108 249.497 204.943 249.551 207.222 249.546  212.21 249.662 215.005 249.658
  219.01  249.57 219.809  249.56 225.006  249.66 225.183  249.66 225.394 249.653
 230.228 249.512  232.36 249.502 278.824 256.646  303.31 260.376 303.814 260.413
 306.699 260.399 317.203 260.304 320.645 260.282 321.416 260.282 324.355 260.234
 325.734 260.157 327.933 260.005 329.423 259.982 331.508 260.359 332.664 260.638
 333.619 260.589 334.961  260.69 345.589 263.706  394.52 278.301  418.63     284
#Mann= 3 , 0 , 0 
       0    .001       0       0    .001       0  418.63    .001       0
Bank Sta=0,418.63
XS Rating Curve= 0 ,0
XS HTab Starting El and Incr=249.221,0.3, 100 
XS HTab Horizontal Distribution= 5 , 5 , 5 
Exp/Cntr=0.3,0.1

Type RM Length L Ch R = 1 ,1926.47 ,554.52,554.52,554.52
XS GIS Cut Line=3
1481731.56695783715910.0717469881481668.16777489715676.929690982
1481612.54016736715472.366569038
Node Last Edited Time=Jan/14/2021 13:59:49
#Sta/Elev= 87 
       0     268  29.735  263.67  44.892 261.951  54.407 261.243  54.481 261.241
   54.61 261.238  64.056 260.954  64.325 260.943  64.944 260.909   69.39 260.674
  71.698 260.614  73.343 260.577  75.497 260.548  78.624  260.52  80.241 260.477
  87.719 260.214  88.461 260.204  89.516 260.155  91.285 260.098  94.667 259.964
  98.228 259.771  99.485 259.707 100.659 259.642 105.075 259.477 109.336  259.48
 109.406 259.481 114.772 259.465 115.613 259.461 118.787 259.513 120.163 259.521
  123.43 259.448 126.539 259.286 128.965 259.215 131.334 259.216 134.923 259.215
  137.64 259.171 139.709  259.19  142.51  259.18 143.447 259.169 146.065 259.178
 150.518 259.213 154.221  259.18 157.548 259.157 165.407 259.166  168.04 259.178
 169.118 259.197 177.139 258.151 189.377   256.7 241.608 253.136 275.508 250.823
 281.156 250.719   283.9 250.899 292.419 256.351 295.797  258.66 297.328 258.655
  300.71 258.619 302.018   258.6 302.877 258.621 306.506 258.676 310.159 258.635
 316.396 258.786 318.544 258.851 320.668   259.1 323.684 259.719 325.719 260.648
 326.793 260.979 328.671 261.903 329.896 262.541 345.638 269.653 349.309 270.984
 350.023 270.975 352.985 270.899 354.041 270.863 355.325 270.864 361.437 270.904
 362.051 270.863 362.754 270.838 368.739 270.738 369.839 271.058 378.802 276.568
 385.235 280.538 417.017 296.527 417.497 296.593 417.915 296.618 418.384 296.664
 420.032 296.771   453.6     298
#Mann= 3 , 0 , 0 
       0     .03       0       0     .03       0   453.6     .03       0
Bank Sta=0,453.6
XS Rating Curve= 0 ,0
XS HTab Starting El and Incr=250.869,0.3, 100 
XS HTab Horizontal Distribution= 5 , 5 , 5 
Exp/Cntr=0.3,0.1

Type RM Length L Ch R = 1 ,1371.95 ,418.58,418.58,418.58
XS GIS Cut Line=3
1481098.91705882715910.2747058821481122.38501465715724.763085559
1481152.99035324715482.831236333
Node Last Edited Time=Jan/14/2021 13:45:03
#Sta/Elev= 50 
       0     266   1.684 265.912   2.766 265.859   3.982 265.819   7.921 265.663
   11.38  265.41  12.406 265.329  14.466  265.31  15.614 265.308  18.219 265.484
  22.461 264.974  56.165 261.104  84.458 257.874   85.35 257.719  89.326 257.438
  92.537 257.076 115.012 256.386 123.352 256.464 144.108 255.821 148.068 250.834
 182.396  250.38  186.99 250.353 228.727 250.113 231.196 249.955 246.764 255.083
 278.627 259.485 281.778 259.379 284.364 259.534 297.182 261.854 303.686 263.505
 303.762 263.529 304.363 263.788 373.661 293.015 375.501 292.769 376.674 292.911
 378.211 292.926 380.026 292.878 381.073 292.887 384.693 293.042 385.693 293.077
 385.824 293.077 388.452 293.241  392.35 293.479 392.762 293.551 395.137 294.205
 395.843 294.338 415.042 298.491 426.919 301.119 429.437 301.705  430.85     302
#Mann= 3 , 0 , 0 
       0    .002       0       0    .002       0  430.85    .002       0
Bank Sta=0,430.85
XS Rating Curve= 0 ,0
XS HTab Starting El and Incr=250.105,0.3, 100 
XS HTab Horizontal Distribution= 5 , 5 , 5 
Exp/Cntr=0.3,0.1

Type RM Length L Ch R = 1 ,953.37  ,428.5,428.5,428.5
XS GIS Cut Line=3
 1480666.4090566715852.2764150941480710.60483417715650.949782614
1480762.99171137715412.309936143
Node Last Edited Time=Jan/14/2021 13:43:10
#Sta/Elev= 115 
       0     272    6.53 271.072  22.559 269.234  27.697 268.895  28.317 268.899
  34.342 268.191  36.894 267.871   41.75 267.363  52.054 266.523  68.626 264.614
  69.882 264.579  74.946 264.421  75.533 264.422 142.117 255.559 176.487 250.628
 177.733 250.635 180.429 250.603 194.168 250.375 201.267 250.189 210.652 250.189
 234.327 250.145  245.01 250.144 256.287 250.449 265.506 253.755 267.274 254.111
 314.357  272.51 323.951 276.151 324.541 276.447 331.555 279.566 332.473  279.94
 341.248 284.584 341.852 284.877 342.963 285.416 343.452 285.724 344.842 286.509
 359.483 294.082  364.62 297.094 365.516 297.083 367.735 297.161 368.671 297.194
 369.338 297.218 371.031 297.226 372.227 297.257 372.597 297.268 373.267 297.348
 373.722   297.4 373.964  297.43 375.581 297.796 381.687 301.286 382.189 301.517
 382.262 301.424 398.734 306.949 399.131  307.08 399.156 307.087 399.971 307.613
  400.76 307.898 401.471 308.053 401.685 308.157 401.926 308.229 404.148 309.104
 404.473 309.124 404.771 309.299 405.095 309.428 405.584 309.458 405.954 309.495
 406.342 309.668 406.687 309.864 407.067 309.981 407.416 310.056 408.259 310.134
 408.583 310.131 408.946 310.407 409.205 310.514 410.797 311.421 411.069 311.455
 411.335 311.563 411.617 311.698 411.938 311.746 412.238 311.884 412.582 311.946
 412.997 311.923 413.327 312.129 413.742 312.184 414.142  312.28 414.562 312.359
 415.065 312.301 415.654  312.34 415.853 312.473 416.175 312.605  416.49 312.714
 416.792 312.819 417.108 312.857  417.33 312.979 417.367 313.014 417.522 313.138
 417.637 313.228 417.664 313.244  417.92 313.329 418.143 313.458 418.351 313.551
 418.527 313.583 418.664 313.667 418.788 313.707 418.879 313.772 418.949 313.825
 419.019 313.845 419.077 313.941 419.119 313.832 419.414 313.858 422.946 315.835
 425.107 316.558 425.577 316.745 425.821  316.81 427.913 317.281 450.443     324
#Mann= 3 , 0 , 0 
       0     .01       0       0     .01       0 450.443     .01       0
Bank Sta=0,450.443
XS Rating Curve= 0 ,0
XS HTab Starting El and Incr=250.294,0.3, 100 
XS HTab Horizontal Distribution= 5 , 5 , 5 
Exp/Cntr=0.3,0.1

Type RM Length L Ch R = 1 ,524.87  ,431.26,431.26,431.26
XS GIS Cut Line=3
1480412.11804432715872.847950139 1480294.9734156715639.317482625
1480182.08814815715414.278148148
Node Last Edited Time=Jan/14/2021 12:54:27
#Sta/Elev= 59 
       0     292   9.705  290.54  10.461 290.312  38.765 287.282 102.576 270.516
 132.867 265.234   143.6 263.005  145.21 262.786 145.988 262.748 146.739 262.829
 147.897 262.747 153.848 262.789 154.608 262.802 162.411 261.688 228.601 252.261
 229.512 252.249 230.365 252.216 248.182 251.781 260.095 251.783 261.265 251.799
 263.589 251.831 264.521 251.838 266.886 251.807 274.449 251.708 281.251 251.671
 283.013 251.743 295.767 252.155  296.08 252.165 296.449 252.151 298.438 252.289
 298.782 252.101 318.422 261.058 379.831 290.772 392.439 293.997 414.017 303.002
 428.556 310.563 478.422 333.141  480.73 334.148  482.65 335.113 482.765 335.168
 483.174 335.398 483.733 335.547 484.376 335.668 489.235 337.814 498.181 341.504
 498.899 341.484 501.004 341.254 501.257 341.318 501.347 341.255 502.107 341.806
 504.672 343.604 505.728   343.8 507.849 343.728  509.08 343.996 509.127 344.006
  509.18 344.038 509.249 344.071 512.451 346.442  513.03     346
#Mann= 3 , 0 , 0 
       0     .01       0       0     .01       0  513.03     .01       0
Bank Sta=0,513.03
XS Rating Curve= 0 ,0
XS HTab Starting El and Incr=251.821,0.3, 100 
XS HTab Horizontal Distribution= 5 , 5 , 5 
Exp/Cntr=0.3,0.1

Type RM Length L Ch R = 1 ,93.61   ,,,
XS GIS Cut Line=3
1480190.28865909716099.3849090911480018.95018461715953.393673175
1479828.76348837 715791.34255814
Node Last Edited Time=Jan/14/2021 12:31:00
#Sta/Elev= 65 
       0     310 108.056 279.709 112.425 277.967 116.045 276.134  118.37 275.619
 119.748 275.188 179.775 253.412 180.932 253.399 190.626 253.184 193.161 253.119
 195.241 253.083 200.436 252.988 201.255  252.98 209.628 253.165  209.91 253.165
 212.764 253.147 225.101     253 230.422 252.937 232.113 252.942 235.797 252.937
 245.549     253 257.827 252.942 258.511 252.969 291.269 262.249 291.326 262.267
 291.775  262.38 291.935 262.382 294.814  262.45 297.686 262.512 298.732 262.617
 299.297 262.649 302.083 262.671 304.143 262.627 304.223 262.618 304.378 262.624
 306.032 262.724 306.787  262.77 309.892 262.952 310.882 262.845 311.991 262.824
 312.194 262.994 312.261 262.989 314.162 263.049 316.447 262.849 317.659 262.975
 318.603 263.101 321.888 263.167 325.202 263.328 325.804 263.315  328.46 263.337
 329.472 263.325 330.075 263.364 330.467 263.468 331.535 263.565  332.51 263.795
 332.845 263.869 333.277 263.915  335.47 264.053 355.286 264.667 369.126 265.126
 369.441 265.113 371.919 265.104 414.972 279.651 438.058 285.882 474.964     298
#Mann= 3 , 0 , 0 
       0     .03       0       0     .03       0 474.964     .03       0
Bank Sta=0,474.964
XS Rating Curve= 0 ,0
XS HTab Starting El and Incr=253.087,0.3, 100 
XS HTab Horizontal Distribution= 5 , 5 , 5 
Exp/Cntr=0.3,0.1

LCMann Time=Dec/30/1899 00:00:00
LCMann Region Time=Dec/30/1899 00:00:00
LCMann Table=0
Chan Stop Cuts=-1 



Use User Specified Reach Order=0
GIS Units=Meters
GIS DTM Type=
GIS DTM=
GIS Stream Layer=
GIS Cross Section Layer=
GIS Map Projection=
GIS Projection Zone=
GIS Datum=
GIS Vertical Datum=
GIS Data Extents=,,,

GIS Ratio Cuts To Invert=-1
GIS Limit At Bridges=0
Composite Channel Slope=5
