Flow Title=Flow data
Program Version=5.07
Number of Profiles= 1 
Profile Names=PF 1
River Rch & RM=deer creek,RiverCL         ,2844.14 
    1900
Boundary for River Rch & Prof#=deer creek,RiverCL         , 1 
Up Type= 0 
Dn Type= 3 
Dn Slope=0.002
DSS Import StartDate=
DSS Import StartTime=
DSS Import EndDate=
DSS Import EndTime=
DSS Import GetInterval= 0 
DSS Import Interval=
DSS Import GetPeak= 0 
DSS Import FillOption= 0 
