Geom Title=1289 Geometry data
Program Version=5.07
Viewing Rectangle= 262687.312317639 , 263712.71294735 , 3621807.30829365 , 3621395.05554097 

River Reach=pearl river     ,RiverCL         
Reach XY= 25 
        262714.1      3621597.06       262792.49      3621567.86
       262844.69      3621547.12       262880.84      3621518.02
       262899.77      3621492.91       262913.37      3621474.89
       262928.97      3621469.57       262956.97      3621464.05
       262991.12      3621476.25       263021.38      3621521.69
       263050.28      3621575.04       263077.56        3621617.
       263121.68      3621635.08       263223.79      3621635.08
       263258.47      3621608.73       263280.12      3621592.28
       263307.72      3621588.49       263361.22      3621621.25
       263388.48      3621655.91       263410.11      3621683.42
        263456.5      3621733.72       263485.67      3621747.05
       263530.07      3621747.05       263605.18      3621719.91
       263702.66       3621684.7
Rch Text X Y=263455.52,3621662.79
Reverse River Text= 0 

Type RM Length L Ch R = 1 ,1178.01 ,88.6,88.6,88.6
XS GIS Cut Line=3
262697.3652649893621498.27227865262739.8403669473621587.47450508
262774.565953031 3621660.4019249
Node Last Edited Time=Jun/26/2019 18:25:27
#Sta/Elev= 324 
       0 102.897    .226 102.904     .79 102.919    .964 102.882   1.229 102.865
   1.681 102.827   2.215 102.787   2.432 102.768   2.545  102.77   3.153 102.745
   3.707  102.67   3.833 102.652     4.1 102.622   4.879 102.567   5.261 102.558
   5.821 102.586   5.872 102.608   6.637 102.517   6.691 102.511   6.762  102.53
   7.055 102.527   7.677 102.543   7.686 102.557   7.964 102.544    8.46 102.582
   8.851 102.584   9.173 102.608   9.587 102.632   9.944 102.642  10.062 102.646
  10.441 102.649  10.748 102.644  10.851 102.598  11.113 102.537  11.409 102.603
  11.964 102.601  12.046  102.62  12.104 102.613  12.763 102.677  13.338 102.692
  13.494 102.681  13.726 102.702  14.184 102.716   14.48 102.778    14.6 102.756
  14.831 102.757  15.033 102.802  15.353 102.819  15.656 102.812  15.727  102.77
  16.008 102.788  16.441  102.83  16.691 102.837  16.986 102.852  17.444 102.812
  17.853 102.835  18.172 102.819  18.388 102.847  18.437 102.822  18.835  102.82
  19.166 102.881  19.402 102.904  19.493 102.833   19.82 102.844  20.189  102.87
  20.206  102.86  20.424  102.86  20.975 102.903  21.387 102.882  21.738   102.9
  22.192 102.906  22.711 102.914  22.952 102.887   23.12 102.891  23.257 102.887
  23.891   102.9  24.015  102.89  24.779 102.897  24.887 102.898  24.995 102.889
   25.54 102.864  26.106  102.83  26.243 102.836  26.258 102.853  26.427 102.882
  27.179 103.031  27.299 103.032  27.634 102.988  28.007  102.89  28.774 102.861
  28.787 102.862  28.798 102.861  28.808 102.862  29.628 102.986  30.419     103
  30.474 103.003  30.533 103.008  31.374 103.091  31.484 103.057  31.677 103.055
  32.208 103.087  32.568 103.089   32.78 103.113  32.954 103.085  33.188 103.066
  33.901 103.018  34.679 103.063  34.971 103.053  34.984 103.058  35.924 103.002
  35.953 103.003  35.979 103.003  36.036 103.033  36.606 102.994  37.224 102.957
  37.229 102.961   37.26 102.959  37.299 102.963  38.108 103.033  38.709 102.966
  38.927 102.937  39.234  102.93  39.648  102.93  39.733 102.983  40.092 102.999
   40.26 102.976  40.466 102.956  40.733 102.968  41.068 102.987  41.104 102.988
  41.378 102.962  41.966  102.94  42.329 102.974  42.823 103.026  43.011 103.034
  43.227 103.066  43.268 103.062  43.844 103.055  44.321 103.072  44.711 103.058
  45.563 103.051  45.597 103.055  45.691 103.047  45.745 103.047  46.343 102.995
  46.898 102.991  47.011 102.994  47.054 102.989  47.182 102.992  47.875 102.951
  48.278 102.943  48.363 102.935  48.695 102.858  49.083 102.825  49.344 102.799
  49.481 102.812  49.881 102.865  50.387 102.789  51.236 102.849  51.404 102.887
  51.443 102.917  51.733 102.832  52.087 102.833  52.219 102.747  52.502 102.727
  52.554   102.7  53.039 102.557  53.391 102.733  54.066 102.853  54.615 102.712
  54.756 102.636  56.704 102.759  56.764 102.754  57.041 102.463  58.198 101.195
  59.047 100.646  59.106 100.612  59.128 100.601  59.174 100.589  59.943  100.14
  60.274  99.942  60.563  99.745  60.759  99.593  60.813  99.573  60.879   99.54
  61.294  99.429  61.481  99.261  61.904  99.079    62.2  98.944  62.267    98.9
  62.479  98.836  76.196  98.848  81.446  98.844  81.735  98.828  81.857  98.819
  82.023  98.835  82.465  98.866  82.884  98.855  83.307  98.811  84.302  98.836
  84.507  98.829  85.595  98.725  86.383  98.839  89.521  98.866  93.264  98.794
  94.996  98.815  97.615  98.894  98.799  98.916 100.344  98.944 101.869  98.997
 102.961  98.927 105.884  98.826  106.24  98.859 107.915  98.812 108.313  98.847
 110.401  98.888 112.009  98.891 114.288  98.824 115.348  98.803 116.725  98.803
 119.372  98.857 122.964  98.913  125.36   99.15 126.472  99.263 126.838  99.195
 127.079  99.292 127.893  99.255 128.724  98.999 128.766  98.986 128.894  99.128
 129.247  99.581 129.356  99.709 130.113 100.616 130.842 100.995 130.963 101.075
 131.082 101.149 132.507 101.813 133.427 101.879 133.793 101.943 134.117 101.936
 134.554 101.893 134.673 101.848 135.252 101.664 135.672 101.676 136.108 101.638
 136.542 101.724 136.641 101.803 136.824 101.778 137.021 101.764 137.473 101.686
 137.908   101.7   138.1 101.652 138.294 101.645 138.694 101.537 138.967 101.473
  139.74 101.472 140.047 101.483 140.094 101.518 140.645 102.186 141.264 102.119
 141.792 102.172 142.365 102.304 142.426 102.323 142.573 102.329 142.838 102.347
 143.907 102.507 144.309 102.557 146.361 102.525 146.562 102.525 146.641 102.523
 146.714 102.515 146.731 102.517  150.81 102.784 151.264 102.736 151.387 102.737
 151.497 102.702 154.808 102.034 155.719 101.986 156.752  101.86 157.496   101.8
 158.139 101.865 158.382 101.877 158.651 101.887 158.791 101.869 159.293 101.871
 162.613 101.746 163.198 101.711 164.934 101.684 164.991 101.678 165.095 101.658
 166.086 101.595 166.439  101.64 167.009  101.57 167.412 101.422 167.495 101.404
 168.241 101.261 169.593 101.232 170.047 101.136 170.337 101.014 170.945 100.974
 171.738 100.864 172.433 100.727 172.843 100.734 173.131 100.766 173.392 100.764
 173.667 100.775 173.849 100.806 174.159 100.856 174.626 100.995 174.891 100.998
 175.255     101 175.731 101.093 175.768 101.089 175.862 101.091 176.603 101.108
 177.298 101.027 177.381 101.005 177.639  101.08 177.662 101.082 177.753 101.078
 178.445 101.098 178.636 101.056  179.33 101.191 179.572 101.237
#Mann= 3 , 0 , 0 
       0     .03       0       0     .03       0 179.572     .03       0
Bank Sta=0,179.572
XS Rating Curve= 0 ,0
XS HTab Starting El and Incr=98.875,0.21, 20 
XS HTab Horizontal Distribution= 5 , 5 , 5 
Exp/Cntr=0.3,0.1

Type RM Length L Ch R = 1 ,1089.41 ,138.8,138.8,138.8
XS GIS Cut Line=3
262784.4398947373621462.96052632262822.6134471683621555.89447304
      262854.7553621634.14344828
Node Last Edited Time=Jun/26/2019 18:25:27
#Sta/Elev= 268 
       0     102   2.319 101.986   5.324 102.198   5.558 102.167   6.131 102.175
   6.272  102.18   6.919 102.081   7.027 102.063    7.16 102.064   7.912  102.15
   8.565 102.062   8.782 102.072   8.877 102.046   9.003  102.07   9.481 102.119
   9.739   102.1  11.034 102.464  11.535 102.603  12.116 102.557  12.995 102.648
  13.205 102.656  13.626 102.732  13.916 102.583  14.222 102.613  14.758 102.642
  14.849  102.64  14.972 102.686  15.197 102.756  15.603 102.753  16.246 102.809
  16.779 102.711  17.265 102.692  17.488   102.7  17.614  102.64  19.392   102.6
  19.394   102.6  19.398 102.602   20.44 103.073  21.157 103.188  21.206 103.156
  21.856 102.876  22.304 102.821  23.312 102.638  23.524 102.645    24.9 102.318
  25.012 102.344  25.607 102.291  25.834 102.478  26.182 102.417  26.775 102.397
   27.03 102.377  27.161 102.356  27.485 102.407  28.098 102.443  29.076 102.742
  29.105 102.749  29.171 102.692   29.48 102.372  29.788 102.266  30.078 102.249
  30.787 102.278  31.278 102.207  32.062 102.301    32.1 102.302  32.166 102.301
  33.001 102.258  33.815 102.133  34.242 102.063  34.913 101.965  35.136 102.008
  36.325 101.928  36.806 101.864  37.019 101.856  37.438 101.891  37.732 101.935
  38.549 101.959  38.881 101.978  39.527 102.062  39.562 102.069  39.582 102.068
  39.612 102.068  41.692 102.104  43.982 101.165   45.06 100.536  46.745 100.076
  47.572  99.356    47.7  99.261  48.174  98.984   49.68  99.017   52.14   98.66
  52.698  98.691  53.279  98.904  53.365  98.915  53.391   98.92  53.511  98.921
   54.11  98.905    54.6  98.867  54.863  98.838  55.191  98.804  55.707  98.774
  55.737  98.759  55.888  98.752   57.64  98.833  59.671  98.923    60.2  98.928
  60.537  99.082   61.11  99.348  61.424   99.58  61.719   99.79  61.922  99.737
  62.378  99.941  62.615 100.129  62.865 100.163  63.609 100.344  64.498 100.385
  64.661 100.372  64.804 100.405  65.379 100.447  65.745 100.445  65.865 100.487
  66.027 100.518  66.192 100.549  66.579 100.657  66.898 100.745  66.984 100.791
  67.261 100.836   67.73 100.865  67.964 100.899  68.162 100.961  68.834 101.144
  69.716 101.489   69.74 101.497  69.749 101.497  69.793 101.507  70.481 101.545
  70.755 101.413  70.951 101.448  71.322 101.493  71.506 101.491  72.183   101.6
  73.164 101.698  73.976  101.66  74.612 101.725  74.803 101.728  74.835 101.692
  75.282 101.634  76.321 101.401  77.131  101.45  77.225 101.439  78.317 101.084
  78.497 100.914   78.86 101.028  79.217 101.003  79.998 100.865   80.42 100.736
  80.671 100.729  80.795 100.708  80.982   100.7    81.8 100.471  83.658 100.066
  83.789 100.108  83.981 100.052  84.139  99.953  84.538  99.728  84.883  99.563
  85.022  99.499  85.165  99.385  85.414  99.126  85.712  98.868  85.937   98.73
  95.526  98.878 100.469  98.868 102.815  98.864  103.91  98.821 104.025  98.817
 108.438  98.756 111.596  98.778 123.776   98.84 124.469  98.881 124.755   98.93
 125.223  98.864 125.643  98.827 125.955  98.883 126.508  98.961 127.388  98.995
 130.084  99.061 130.804  99.123  131.08  99.072 131.222  99.175  133.35  100.02
 133.718 100.187  134.42 100.553 136.593 100.864 141.978 102.417  142.55 102.402
 143.051 102.388 145.641 102.314  147.08 102.391 147.684 102.395 148.751 101.942
 148.791 101.944 148.797 101.945 149.223 102.074 149.431 102.143 149.899 102.242
 151.222 102.182 151.446 102.184 151.524 102.226 152.075 102.302 152.636  102.31
 152.834 102.235 153.083 102.171 153.672  102.25 154.053 102.223 154.639  102.19
 154.761 102.233 154.908 102.274 155.449 102.348 155.844 102.227  156.19 102.104
 156.233 102.087 156.852 102.274 156.904 102.277 157.224 102.188 157.844   102.1
 159.335 102.016 159.963 102.075 160.863 101.914 161.169 101.919 163.247 101.989
  163.44 101.998 163.516 101.988 164.364 102.144 168.351 102.173 169.276 102.268
 171.273 102.198 174.039  102.23 175.195  102.23 175.221 102.241 175.458 102.275
 176.058 102.367  176.56 102.212  176.78 102.191 177.106 102.191 177.629 102.182
 178.178 102.086  178.39 102.052 178.539  102.02 178.928 101.978 179.223 101.993
 179.345 101.991 179.422 101.958 179.992 101.987 180.324 102.029 180.879 102.244
 180.937 102.254 180.971 102.267 181.079 102.254 181.755 102.147 182.122  102.13
 182.971 102.074 183.197 102.037 183.811 101.859 184.096 101.768 184.435 101.923
 184.454 101.926 184.686 101.818 185.062 101.606
#Mann= 3 , 0 , 0 
       0     .03       0       0     .03       0 185.062     .03       0
Bank Sta=0,185.062
XS Rating Curve= 0 ,0
XS HTab Starting El and Incr=98.81001,0.22, 20 
XS HTab Horizontal Distribution= 5 , 5 , 5 
Exp/Cntr=0.3,0.1

Type RM Length L Ch R = 1 ,950.61  ,167.76,167.76,167.76
XS GIS Cut Line=3
262914.0619287153621399.09723462262927.1978119323621470.17865266
262944.653030303 3621564.6330303
Node Last Edited Time=Jun/26/2019 18:25:27
#Sta/Elev= 410 
       0 103.053    .015 103.053    .103     103    .291     103    .623 103.007
    .802 103.009    1.04 103.023   1.192 103.018   1.599 103.001   1.643 103.002
   1.676 103.003   2.045 103.023   2.508  103.01   2.634 103.007   2.737 102.997
   2.805 102.999   3.032 102.985   3.314 102.984   3.556 103.004   3.913 102.974
   3.984 102.973   4.407 103.019   4.434 103.022   4.575  103.03   4.871 103.041
    5.32 103.011   5.351  103.01   5.359 103.011   5.777 103.037   5.902 103.028
   6.275 103.006   6.329     103   6.419 103.014   6.701  103.04   6.827 103.086
   6.844 103.088    6.87 103.081   7.146 103.022   7.259  103.06   7.405 103.057
   7.551 103.054   7.714 103.085   7.884 103.065   7.946 103.075   8.124 103.071
   8.361 103.012   8.369 103.011   8.373  103.01   8.376  103.01   8.625 103.083
   8.712  103.05   8.822 103.046   9.046 103.071   9.087 103.061   9.457 103.099
   9.733  103.07   9.758 103.071   9.943 103.155  10.308 103.081  10.539  103.12
  10.688 103.113  11.054 103.119  11.201 103.121  11.365  103.11  11.485 103.137
  11.834  103.13  11.959 103.101  12.101 103.115  12.359 103.089  12.609 103.165
  12.806 103.145   13.21 103.132  13.233 103.133  13.275 103.121  13.319 103.115
  13.386 103.124  14.156 103.122   14.34 103.113  14.471 103.129  14.821 103.185
  15.185 103.191  15.397 103.069  15.597 103.092  15.958 103.112  16.206 103.156
  16.265 103.153  16.296  103.15  16.349 103.145  16.465 103.152  16.666 103.123
  16.821 103.138  17.079 103.133  17.145 103.132  17.337 103.179  17.474 103.162
  17.628 103.142   17.65 103.138  17.682 103.129  17.866 103.099  17.958 103.101
    18.1 103.088  18.104 103.088   18.12 103.086  18.337 103.086  18.341 103.088
  18.394 103.082  18.481 103.063  18.576 103.038  18.645 103.067  18.778 103.104
  18.839   103.1  18.892 103.103  18.936 103.132  19.087 103.127  19.103 103.133
  19.127 103.126  19.205 103.115  19.343 103.136  19.405 103.147  19.461 103.158
  19.502 103.163   19.61 103.121  19.738 103.089  19.995 103.169  20.194 103.093
  20.376  103.06  20.642 103.081  20.798 103.136  20.962   103.1  21.087 103.142
  21.186  103.13  21.287 103.115  21.875 103.141  21.945 103.145  22.005 103.154
  22.056 103.152  22.083  103.13  22.874  103.09  23.008 103.083  23.789 103.228
  24.118 103.229  24.596 103.148  24.848 103.124  25.317 103.221  25.497 103.253
  25.934 103.283  26.367 103.303   26.55 103.339  26.948 103.235  27.448  103.13
  27.575 103.123  27.894 103.128  28.529 103.138   28.54 103.138  28.567 103.139
  28.618 103.134  29.177 103.102  29.441  103.11  29.772 103.126  30.457  103.09
  30.477 103.088  30.952 103.075  31.475 103.052  31.549 103.093  31.971 103.054
  32.339 103.052  32.415  103.06  32.636 103.078  33.257  103.04  33.293 103.045
  33.329 103.051  33.729 103.146   34.04 103.171  34.308 103.173  34.719 103.113
  34.804 103.103  34.843   103.1   35.29 103.105  35.735 103.096  36.067 103.094
  36.287 103.112  37.189 103.095  37.255  103.09  37.361 103.093  37.591 103.071
  38.298 103.046  38.934 103.098  39.389 103.095   39.79 103.081  40.543 103.134
  40.684 103.151  41.151  103.14  41.639 103.133  41.689 103.135  41.842  103.13
   42.58 103.157  42.759  103.15  43.139 103.107   43.45 103.098  43.844 103.207
  44.214  103.21  44.336 103.207  44.854  103.16  45.065 103.165  45.388 103.161
  45.909  103.17  46.444 103.133  47.108 100.826  47.131 100.726  47.143 100.709
  47.939  99.621   48.42  99.198  48.658      99  48.797  98.946  49.624  98.941
  63.453  98.868  63.475  98.869  63.479  98.869  63.609  98.871  72.103  98.969
  72.285  98.967  85.015  98.826  92.976  98.792  96.287  98.833  97.181  98.886
  98.888  98.839   99.01   98.89  99.035  98.926  99.139  98.931  99.251  98.934
  100.24   99.06 100.243   99.06 100.254  99.063 101.255  99.301 101.318  99.308
 102.195  99.468 102.226  99.476 102.249  99.475  102.34  99.342 102.877  99.539
  103.14  99.604  103.33  99.617 103.364  99.613 103.949  99.688 104.255  99.733
 104.432  99.761  104.57  99.816 105.022   99.85 105.646 100.001 105.685 100.028
 105.783  100.03  105.99 100.078 106.659 100.166 106.775 100.218 106.834 100.191
 107.615 100.322 107.889 100.468 108.034 100.414 108.598 100.564 109.022 100.844
 109.251 100.852 109.615 100.951 110.167 101.157 110.472 101.025  110.62 101.058
 111.329 101.477 111.628 101.528 111.702 101.535 112.456 101.676 112.474  101.68
 112.507 101.683 112.784 101.705 113.292 101.825 113.441  101.87  113.71 101.875
 113.838 101.844 114.073 101.887 114.354 101.922  114.86 101.947 114.875 101.947
 115.178  101.95 115.254 101.962 115.406 101.963 115.866 101.966 116.181 101.994
 116.214 101.997 116.293 101.967 116.851 101.814 116.931  101.78  117.18 101.673
 117.818 101.404 117.991 101.279 118.112 101.208 118.466 101.117 118.792 101.037
 118.918 100.994 119.094 100.952 119.599 100.958 119.803 100.911 119.885 100.927
  120.12 100.944 120.756 100.765  120.83 100.749 120.858 100.751 121.131 100.785
 121.668 100.725 121.803 100.707 121.857 100.723 122.155 100.952 122.196 100.987
 122.205 100.987 122.271 100.986 123.101 100.909  123.26 100.911 123.571  100.85
 123.839 100.927 123.992 100.872 124.312 100.831 124.418 100.878  124.85 100.885
 125.317 100.922 125.726 100.842  125.74 100.841   126.3 100.845 126.456 100.857
 126.743 100.801 127.167 100.938 127.294 100.926 127.468 100.922 127.905 100.993
 129.542 101.158 129.851 101.099 129.985 101.057 130.074  101.06 130.891 101.127
 130.938 101.133 131.254 101.108 131.311 101.116 131.706  101.18 131.924 101.202
 132.199 101.246 133.049 101.339 133.268  101.38 133.571 101.372 133.919 101.441
 134.069 101.477 134.257 101.444 135.384 101.647 138.935 102.252  139.16 102.275
 139.338 102.265 139.761 102.147  140.93 101.937  141.07 101.913 141.127 101.874
 141.324 101.848 142.062 101.484  142.09  101.48 142.183 101.457 143.837 101.204
 144.062 101.183 144.531 101.185 144.692 101.259 144.853 101.241 145.117 101.122
 145.475 100.928  145.76  100.77 145.865 100.814 146.083 100.823 146.725 101.005
 146.778 100.932 147.612 101.002 147.755 101.056 147.984 101.069 148.747  101.26
 148.847 101.228 149.369 101.302 149.871 101.403 150.296 101.432 150.495 101.407
  151.06  101.28 152.289 101.293 153.159 101.386 153.529 101.338 154.075 101.481
 154.558 101.681 154.688 101.683 154.885 101.558 155.474 101.829 155.619 101.838
 155.915 101.951 155.986 101.966 156.267 101.939 156.506 101.903 156.572 101.906
   156.6 101.908 156.916 101.985  156.95 101.986 160.425 101.924 162.691 102.047
  163.87  102.14 165.414 102.121 165.555 102.134 165.806 102.131 166.574 102.125
 167.291 102.197 167.368 102.199 167.379 102.181 167.486 102.164 168.339     102
#Mann= 3 , 0 , 0 
       0     .03       0       0     .03       0 168.339     .03       0
Bank Sta=0,168.339
XS Rating Curve= 0 ,0
XS HTab Starting El and Incr=98.942,0.22, 20 
XS HTab Horizontal Distribution= 5 , 5 , 5 
Exp/Cntr=0.3,0.1

Type RM Length L Ch R = 1 ,782.85  ,150.96,150.96,150.96
XS GIS Cut Line=3
263138.6242978083621496.85275693263043.5234595893621562.56604003
262960.6915789473621619.80165355
Node Last Edited Time=Jun/26/2019 18:36:24
#Sta/Elev= 500 
       0 100.528    .336  100.55    1.07 100.656   1.165 100.668   2.281  100.84
   2.685 100.875   3.383 100.951   4.067 100.931   4.225 100.947    4.93 100.993
   5.316  101.05   5.645 101.073   6.049  101.08   6.377  101.08    6.58 101.096
   7.042 101.107   7.523  101.15   7.794 101.181   8.077 101.202    8.62 101.263
   9.123 101.295   9.402 101.294  10.069 101.402  10.216 101.436  10.395 101.451
  10.873 101.254  11.065 101.191  11.112  101.18  12.735 100.972  13.135 100.758
  13.339 100.714  13.503  100.66  14.274 100.607  14.769 100.426  15.187 100.375
  15.334 100.314  15.788 100.174  16.026 100.052  16.276  99.988  16.597  99.916
  16.715  99.927  17.295  99.758  17.922  99.555  17.998  99.529  18.103  99.504
  18.318  99.442   18.91  99.232    19.3  99.152  19.495  99.139  20.026  99.008
  20.081      99  20.994  98.906  21.401  98.827  21.555  98.916  21.631  99.016
  22.032  98.911  22.184  98.893  22.819  98.877  23.299  98.884  23.451  98.889
  23.841  98.968  24.149  99.012  24.557  98.983  25.075  98.873  25.349  98.859
  25.455  98.867  26.116  98.954  26.601  98.937  27.683  98.995   29.11  98.941
  29.149  98.953  29.723  98.918  30.034  98.946  31.291   99.16    31.5  99.186
  31.887  99.316  32.052  99.369  32.134  99.311  32.253  99.337  33.332  99.495
  33.446  99.578  33.542  99.593  34.271   99.67  35.311  99.766  35.579  99.799
  36.137  99.901  36.301  99.869  37.164  99.961  37.225  99.976    37.7 100.006
  37.994 100.022  38.416 100.062  38.802 100.117  39.362 100.182  39.659 100.165
  39.788 100.174  40.127 100.213    40.5 100.251  40.634 100.261  41.183  100.28
  41.875 100.339  42.528 100.384  43.023 100.376  43.396 100.396  43.558 100.397
  43.922 100.433   44.08 100.455  44.637 100.404  44.654  100.39  45.061 100.418
  45.105 100.409  46.072 100.456  46.381 100.482  46.393  100.46  46.766 100.484
   46.78 100.496  47.389 100.588  47.458 100.611  48.087 100.736  48.296 100.767
  48.451 100.815  48.512 100.825  48.814 100.924  49.529 101.125  49.808 101.206
  50.211 101.283  50.229 101.266  50.805   101.3  51.291  101.36  51.877 101.394
  52.153 101.388  52.656 101.393  54.332 101.442  54.381 101.445  55.012 101.317
   55.26 101.299  55.523 101.227  56.072  101.06   56.48  101.01  56.883 100.897
  57.246 100.806  57.402 100.792  57.961  100.75  58.197 100.753  58.316 100.737
  58.631 100.719  59.056 100.732  59.107 100.747  59.352  100.72  60.612 100.656
  60.909  100.63  61.373  100.63  61.607 100.617  61.843 100.612  62.247 100.587
  62.615 100.622   63.32 100.505  63.495 100.526   63.66 100.579  63.758 100.571
  64.589 100.567  65.575 100.484  66.203 100.451  66.794 100.424  66.921 100.415
  67.326 100.421  67.399 100.414  67.701 100.404  67.712 100.412  67.885  100.39
  68.012 100.402  68.175 100.383  69.089 100.337  69.251 100.343  69.277 100.336
  69.782 100.377  69.947  100.37  70.069 100.352  71.043  100.31  71.292 100.301
  71.923 100.352  71.979 100.341  72.182  100.33  72.352 100.338  72.511  100.33
  72.666 100.346  72.943 100.315   73.32 100.336  73.676 100.325  73.802 100.317
  74.068  100.29  74.722 100.233  74.818 100.257  75.316 100.243  75.522 100.174
  75.566 100.173  76.198 100.219  76.262 100.221  77.129  100.19  77.389 100.196
  77.559 100.206  77.848  100.23  78.202 100.302  78.537 100.276  78.683 100.271
  79.385 100.289  79.495 100.293  80.046 100.218  80.183 100.194  80.473 100.184
  80.749 100.144  81.335 100.022  81.554  99.999  81.779  99.986  81.986  99.932
  82.544  99.848  82.634  99.838  83.394  99.622  83.545  99.598  83.984  99.444
  84.064  99.423   84.39   99.37  84.729  99.345  84.902    99.3  85.363  99.207
  85.685  99.132  85.888  99.099  86.455  98.989  86.748   98.92  86.951   98.92
  87.555  98.903   88.29  98.862  88.347  98.855  88.543  98.872  88.995  98.896
  89.713  98.841  90.211  98.824  90.453   98.84  90.742  98.883  91.007  98.936
  91.278   98.94  91.559  98.924  91.817  98.884  92.178  98.907  92.608  98.918
  93.028  98.909  93.128  98.941  93.423   98.92   93.66  98.874  93.879  98.874
  94.367   98.91  94.499  98.931  94.719  98.929  95.468  98.854  95.555  98.855
  95.761  98.893  95.797   98.88  96.467  98.865  96.562  98.879  96.906  98.939
  97.459  98.928  97.659  98.897  97.935  98.908  98.732  98.906  99.022  98.877
  99.121   98.86  99.244  98.855  99.639  98.982  99.802  99.013  99.842  99.002
 100.259   98.82 100.713  98.808 100.963  98.828 101.293  98.877  101.64   98.88
 101.965  98.876  102.63  98.919 103.386  98.816 103.601  98.841 104.101  98.879
 104.201  98.855 104.466  98.869 104.684  98.866 105.407  98.967 105.631  98.978
 105.957  98.901 106.133  98.933 106.286  98.929 106.722  98.893 107.112  98.881
 107.804  98.882  107.97  98.793  108.52  98.926 108.794  98.806 108.876  98.812
 108.905  98.803 109.161   98.84 109.667  98.906 109.991  98.909 110.646   98.87
  110.96  98.948 111.626  98.876 111.833  98.858 111.857   98.85 111.953  98.851
 112.472  98.895 112.789  98.801 112.942  98.781 113.003  98.783 113.417   98.92
 114.068  98.918 114.211   98.91 114.839  98.971 114.958  98.992 115.124  98.955
 115.585  98.834 116.132  98.914 116.158   98.92 116.706  98.879 116.758  98.883
 117.229  98.891 117.938   98.91 118.019   98.91 118.174  98.897 118.188  98.901
 118.882  98.866 119.455  98.892 120.234   98.92 120.497  98.899 120.646  98.864
  120.71  98.843 120.822  98.843 121.577  98.873 122.195  98.877 122.527  98.854
 122.641  98.905 122.968  98.879 123.099  98.935  123.49  98.948 124.136  98.914
 124.385  98.904 124.401  98.899 124.589  98.925 125.059  98.951 125.235  98.996
  125.94  98.894  126.33  98.911 126.497   98.93  128.11  98.845 128.166  98.852
  128.33  98.842 128.816  98.855 129.101   98.86 129.158  98.889 129.468  98.894
  129.59  98.957 130.528  98.925 130.639  98.906 130.864  98.892 131.153   98.87
  131.24  98.875 131.802  98.875 132.148  98.915  132.48  98.886 133.019   98.88
 133.213   98.87 133.716  98.922 134.155  98.895 134.791  98.904 135.643  98.939
 136.462   98.94 136.586  98.924 136.637  98.957  137.28  98.899 137.666  98.925
 138.616  99.011 139.205  98.895 139.449  98.868 139.491  98.871 139.604  98.902
   140.5   99.11 140.742  99.078 140.918  98.974  141.91  98.997 143.151  99.034
 143.277  99.026 143.612  98.973 144.031   99.05 144.381  99.103 144.672  99.179
 145.265  99.414 154.804 102.768 155.419  102.73 155.663 102.811 156.614 102.768
 157.206 102.749 158.049 102.731 158.437 102.656 160.457 102.913 160.744 102.961
 161.848 102.829 163.161 102.954 164.263 102.978 164.473 102.847  164.58 102.861
 165.342 102.905   167.9 103.035 168.049 103.186 168.255 103.185 168.682 103.056
  169.11 103.072 169.619 103.114 169.747 103.143 169.852 103.114  170.46 103.128
  171.25 103.152 171.423 103.139 171.572 103.135     172 103.209 172.067 103.224
 172.491 103.092 173.039 103.145 173.379 103.227 174.445 103.266 174.887 103.216
 175.186 103.217 176.957 103.023 177.477  103.04 178.894 102.646 180.119 102.268
 180.724 102.141 181.579 101.848 181.675 101.897 182.001 101.811 182.867  101.65
 182.927 101.633 183.883 101.627 183.936 101.633 184.703 101.757 184.863 101.737
 185.473 101.834 186.476 102.084 186.987 102.152 187.304 102.083  187.57 102.002
 187.659 102.059 187.964 102.095 188.023 102.114  188.51   102.2 189.102  102.26
  189.27 102.287 189.813  102.36  190.78 102.479 191.019 102.446  191.16  102.47
 191.386 102.474 191.638 102.454 191.683 102.454   192.3 102.474 192.379 102.472
 192.778 102.502 193.085 102.519 193.161 102.509 193.489 102.386 194.311 102.343
 194.705 102.387 195.278 102.377 195.416  102.37 195.631 102.379 196.132 102.309
 196.566 102.275 197.799 102.215 197.877 102.206 198.375 102.265 199.293  102.25
 199.583 102.269 199.904 102.296 200.487 102.467 200.807 102.516 201.161  102.56
 201.695 102.492 201.976 102.382 202.583 102.218 202.671 102.218 202.825 102.281
 202.922 102.249 203.034 102.279 203.864 102.269 204.941 102.168 205.492 102.159
 206.098 102.302 208.044 102.144 209.502 102.119 209.597 102.133 210.031 102.163
 210.401 102.136 211.065 102.229 212.664 102.013 216.027 101.583 216.279 101.611
#Mann= 3 , 0 , 0 
       0     .03       0       0     .03       0 216.279     .03       0
Bank Sta=0,216.279
XS Rating Curve= 0 ,0
XS HTab Starting El and Incr=98.931,0.22, 20 
XS HTab Horizontal Distribution= 5 , 5 , 5 
Exp/Cntr=0.3,0.1

Type RM Length L Ch R = 1 ,631.89  ,147.21,147.21,147.21
XS GIS Cut Line=3
       263171.023621525.23681818263160.7302122763621635.07677398
263153.0571328673621716.98426573
Node Last Edited Time=Jun/26/2019 18:25:27
#Sta/Elev= 466 
       0     100    .389  99.914    .589  99.858    .655  99.839   1.012  99.764
   1.442  99.687   1.586  99.688    1.74  99.801   1.751  99.801   2.372  99.687
   2.639  99.774   2.737  99.846   3.131  99.822     3.3  99.835   3.684  99.818
   3.872  99.812   4.092  99.779     4.3  99.803   4.908  99.712   5.104  99.722
   6.469   99.63   6.826  99.643   7.223  99.693   9.823  99.727  10.011  99.683
  10.046  99.683  10.787  99.695  11.092  99.713  11.248   99.69   13.68  99.647
  14.104   99.66  14.254  99.603  14.498  99.626  14.898  99.642   15.82  99.598
  16.132  99.632  16.296  99.681  16.432   99.76  17.375  99.894  17.384  99.898
  17.447  99.917   18.33 100.274  18.408 100.276  18.506 100.307  18.943 100.458
  20.022 101.089  20.237 101.245  20.431 101.336   20.52 101.367  20.654 101.374
  21.301 101.442  24.893 101.351  27.263  101.28  28.142 101.246  31.467 101.257
  32.126 101.265  32.489 101.083  32.527 101.062  32.635 101.053   32.99 101.051
  33.296 100.998  33.447  100.99   33.84 100.947  34.107 100.966  34.367 101.063
   34.91     101  34.979 101.008  34.998 101.003  35.285 101.064  35.638 101.108
  36.172 101.151   36.65  101.11   36.89  101.13  37.005 101.126  37.108 101.104
  37.265  101.11  37.832 101.097  37.984  101.01  38.005 101.002  38.651 101.073
   38.77 101.074  38.891 101.087  39.267 101.047  39.697 101.005   39.76  100.99
  40.589 100.971  40.633 100.971  40.639 100.964  40.721 100.973  41.575 101.018
  41.697 101.029  42.541 101.253  42.791 101.286  43.496 101.281  43.878 101.338
  44.463 101.463   44.56 101.485   45.53 101.539  46.585 101.418  46.894 101.424
  47.735 101.453  48.415 101.415  49.256 101.205  49.346 101.188  49.926 101.174
  50.385 101.151  50.643  101.15  51.191 101.163  51.415 101.171  51.489 101.166
  52.357 101.191   52.74 101.228  53.306 101.318  54.033 101.366  54.234 101.346
  54.325 101.384  54.923 101.354  58.251 101.426  59.414 101.376  59.866 101.282
  60.119 101.225  60.564  101.14  60.735 101.112  60.962 101.117  61.475 101.056