Geom Title=Site 1270 17B Geometry Data
Program Version=5.07
Viewing Rectangle= 417595.883200338 , 418023.956765821 , 183041.61518098 , 181940.412646723 

River Reach=little patuxent ,RiverCL         
Reach XY= 20 
       417600.43        182977.8       417637.97       182964.38
       417690.13       182935.95       417738.34       182900.41
       417775.09        182862.1       417827.09       182803.55
       417871.96       182724.09       417889.77       182666.25
       417900.04        182616.1       417906.05       182541.65
       417890.95       182490.79       417858.12       182420.34
       417842.31       182363.08       417833.61       182289.85
       417833.61       182227.07       417799.98       182145.88
       417779.43       182098.89       417728.85       182072.83
       417669.58        182059.8       417600.08       182009.14
Rch Text X Y=417600.1675,182251.305
Reverse River Text= 0 

Type RM Length L Ch R = 1 ,1145.37 ,189.3,189.3,189.3
XS GIS Cut Line=3
417652.351141397182871.880511073417684.011120881182939.281774824
417727.008371704183030.819074927
Node Last Edited Time=Dec/27/2020 22:22:09
#Sta/Elev= 146 
       0      68   7.631  64.723   8.176  64.761   8.352  64.744   8.522   64.89
   8.861  64.778   10.17   64.11  10.755  63.977  10.924  63.946  11.355  63.836
  12.072  63.707  12.826  63.869  12.912  63.878  14.087  63.964  14.575  64.081
  14.865   64.07  15.827  64.074  16.604  64.055  16.917  63.842  18.545  63.699
  18.618  63.706  18.744  63.635  19.196  63.378  19.543  63.342  19.824  63.416
  20.612   63.56  20.793  63.395  21.032  63.375  22.737  63.214    23.5  63.156
  24.434  63.103  25.932  62.976  26.431  62.936  27.805  62.861  27.822  62.859
  27.844  62.854  29.606  62.522  30.046  62.409   31.39  62.219   32.23  62.132
  33.212   62.17  34.634  62.178  35.101  62.156  35.137  62.188  36.845  61.833
  42.784  60.734  46.959  59.844  47.742  59.706   48.48  59.605  48.909  59.641
  50.899  59.669   51.06  59.673  51.234  59.676  53.731  59.549  54.484  59.546
  55.137  59.633  56.606   59.56  57.007  59.553  58.295  59.462  59.996  59.349
  61.022  58.908  62.032  58.303  63.212  58.378  63.734  58.383  65.435   58.36
  65.446   58.36  67.302  58.294  67.759  58.297  68.906  58.306  69.756  58.317
  70.406  58.358  71.662  58.385  72.104  58.377   73.63  58.361  73.731  58.361
  74.467  58.358  75.429  58.354   75.95  58.348  77.267  58.388  78.163   58.39
  79.047  58.404  80.382  58.358  80.828  58.338  82.254  58.408  82.336   58.41
  82.623  58.409  84.384  58.402  84.922  58.379  86.149  58.298  87.453  58.276
  88.128  58.319  89.852  58.307  89.953  58.302  90.277  58.296  91.659  58.298
  92.002   58.27  93.348  58.281  94.114  58.364  94.975  58.397  95.341  58.432
  96.825  58.382  99.188  59.582 102.773  60.342 107.561  61.862 109.071  61.723
 109.401  61.704 109.782  61.715 111.073  61.736 112.039  61.746 112.899  61.721
 114.354   61.66 114.566  61.672 115.297  61.686  116.55  61.728 116.799  61.728
 118.351  61.673 118.869  61.654 120.111  61.676 120.932  61.653 121.871  61.627
 122.988  61.692 124.251   61.69 124.913  61.708 125.471  61.706 127.147  61.711
 127.478  61.729 128.942  61.802 129.245  61.797 131.806  61.783 132.704   61.76
 133.838  61.674 135.076  61.707 136.336  61.626  136.49  61.611 136.724  61.615
 137.866  61.619 138.258  61.655 139.556  61.743 139.825  61.696 141.047  62.069
 141.423  62.124 143.858  63.403 144.388  63.621  150.79  66.573  167.24  73.138
 175.599      76
#Mann= 3 , 0 , 0 
       0     .04       0       0     .04       0 175.599     .04       0
Bank Sta=0,175.599
XS Rating Curve= 0 ,0
XS HTab Starting El and Incr=58.42,0.3, 59 
XS HTab Horizontal Distribution= 5 , 5 , 5 
Exp/Cntr=0.3,0.1

Type RM Length L Ch R = 1 ,956.07  ,78.12,78.12,78.12
XS GIS Cut Line=3
      417743.898      182750.066 417821.14771754 182810.24150869
417906.421235955182876.667348315
Node Last Edited Time=Dec/28/2020 12:18:08
#Sta/Elev= 188 
       0      84    .352  83.841    .627  83.749   1.516  83.372   2.043  83.216
   2.474  83.026   3.283  82.723   4.442  82.188   4.532  82.207    5.52  81.869
   6.498  81.546   6.601  81.512   7.793  80.865   8.116  80.784    9.15  80.367
   9.409  80.203  10.324  79.884  10.664  79.773  11.127  79.617  12.523  79.567
  12.693  79.455  13.211  79.034  14.341  78.541  15.518  77.937  15.687  77.843
  16.212  77.707  17.079  77.539  17.169  77.516  17.485  77.419  17.679  77.409
  18.305  77.198  18.562  77.011  19.024  76.814  19.564  76.652  20.966  76.265
  21.435  76.133  22.413   75.75  22.831  75.947  24.331  75.006  24.379  74.989
  24.766  74.804  24.882  74.785  25.191  74.754   25.32  74.773  25.466  74.626
  26.632  74.122  27.256  73.853  27.438  73.866  27.549  73.864  28.864   73.51
  29.202  73.361  29.582  73.375  29.661  73.383   30.12  73.347  31.002  73.303
  31.066  73.318  31.777  72.947  32.809  72.415   33.02  72.229  33.168  72.157
  33.415  71.915   33.64  71.591  34.151   71.29  35.601  70.756    35.7  70.775
  36.148  70.378  36.258  70.198  36.587  70.224   36.81  70.203   38.16  69.585
  38.398  69.415  38.595  69.013  38.922  68.947  40.281  68.334  41.598  67.741
    41.9  67.647  42.557  67.872  42.646  67.817  43.438  67.117   43.69  66.923
  44.048  66.584  44.973  66.396   45.57  65.271  45.814  65.525  46.739  64.195
  47.155  63.787  47.567  63.705   48.47  63.544  49.705  63.895  49.859  63.941
  50.861  63.908  51.185  63.997  52.212   63.98  53.285  63.761  54.257  63.383
  54.588  63.241    55.8  63.438  56.507  63.454  58.061  63.427  58.196  63.413
  58.824  63.349  59.255  63.292  59.448  63.287  61.155  63.302  61.406  63.202
  61.984  63.283  62.616  63.091  63.753   62.83  64.723  62.416  65.629  61.612
   66.48  60.843  67.594  59.022  68.633  58.319  68.806  58.006   69.04  57.992
  70.451  57.965   70.85  57.971  70.984  57.963  72.694  57.996  72.999  57.966
  74.477  57.937  76.189  58.137  76.318  58.137  76.374   58.15  77.234  58.098
  78.027  58.028  79.085  58.062  79.345  58.043   79.75  58.055   82.04  58.061
  84.815  58.085  91.863  58.117  97.921  58.153  99.513  58.163 100.094  58.112
 101.393  57.998 102.298   57.98 103.077  57.972  104.28  57.946 104.754  57.942
 106.574  57.969 106.698  57.965 107.326  57.966 108.431  57.962 108.593  57.964
 109.878  57.961 111.227  58.007  112.74  58.005 113.662  57.977 115.018   57.93
 116.128   57.92 117.458  57.972 118.916      58 118.928      58 121.871  57.951
 123.476  58.022 124.169  58.027 126.517  57.982 127.715  58.141 129.622  59.489
 131.561  60.374 134.546  60.364 135.672  60.383 136.638   60.45 138.862  60.564
 139.052  60.561  140.05  60.546 141.042   60.56 141.592  60.566 144.825   60.48
 146.626  60.433 147.988  60.455 149.508  60.533 149.686   60.55 151.996   60.65
 151.998   60.65 152.006  60.652 162.355  62.559 176.956  69.455 180.544  71.479
 182.261  72.372 182.557    72.6 183.382  72.921 184.266  73.304  184.45  73.394
 184.505  73.418 194.109  77.094 206.014      82
#Mann= 3 , 0 , 0 
       0     .01       0       0     .01       0 206.014     .01       0
Bank Sta=0,206.014
XS Rating Curve= 0 ,0
XS HTab Starting El and Incr=58.07,0.3, 86 
XS HTab Horizontal Distribution= 5 , 5 , 5 
Exp/Cntr=0.3,0.1

Type RM Length L Ch R = 1 ,877.95  ,81.15,81.15,81.15
XS GIS Cut Line=3
417767.201090909      182700.132417861.100701728182743.317038478
417969.525842851182793.182462312
Node Last Edited Time=Dec/28/2020 12:54:28
#Sta/Elev= 99 
       0      84    .892  83.714   1.328  83.611   1.508  83.661    2.47  83.366
   3.658  83.023    4.06  82.904   5.704  82.532    6.37  82.374   6.712  82.362
   8.831  82.212   9.809   81.83  10.013  81.802  11.251  81.671  11.973  81.474
  12.926  81.409  13.352  81.369  14.557   80.93  14.629  80.921  16.251  80.718
   16.98  80.651  17.676   80.54  18.836   80.49  19.625  80.402  20.297  80.289
   20.86  80.196  21.723  79.989  22.782  79.612  24.698   79.52  27.211  78.433
  27.682  78.153  27.821  78.045  27.865  78.008  29.633  76.675    30.2  76.459
  31.551  75.753  32.194  75.502  32.773  75.415  33.085  75.091  51.064  64.227
  52.672  63.262  52.751  63.262  52.782  63.263  53.152  63.266  57.271  63.328
  59.283   63.31  59.299   63.31  59.323  63.309  61.843  63.224  62.339  63.229
  63.683  63.251  64.384  63.204  66.065  63.286  66.285  63.295  66.623  63.287
  70.102  63.122  78.391  60.452  82.355   59.28  84.768  58.876  84.776  58.872
  84.815  58.863  85.467  58.484  87.949  57.944  89.146  57.885  90.865  57.906
  91.334  57.968  92.863  57.953  92.976  57.949  93.363  57.929  94.272  57.899
  95.981   57.88  96.615  57.907  96.871   57.89  98.923  57.937 102.021  57.874
 102.715  57.876 103.139  57.881 103.354  57.885 103.953  57.896  105.62  57.962
 106.305   57.95 106.931   57.91 108.781  57.806 109.923  57.867 111.395  57.905
 112.517  57.903 113.154  57.902  114.54  57.961 117.804  58.013 121.754  58.087
 128.708  59.136 132.871  59.449 136.216  59.821 136.891  59.814 148.777  63.332
 154.037  64.149 178.552  76.384 192.977  82.845 222.696      94
#Mann= 3 , 0 , 0 
       0     .02       0       0     .02       0 222.696     .02       0
Bank Sta=0,222.696
XS Rating Curve= 0 ,0
XS HTab Starting El and Incr=57.956,0.3, 100 
XS HTab Horizontal Distribution= 5 , 5 , 5 
Exp/Cntr=0.3,0.1

Type RM Length L Ch R = 1 ,796.8   ,66.32,66.32,66.32
XS GIS Cut Line=3
417766.272535885182651.077559809  417889.3395812182667.639009426
418019.759966159182685.190016921
Node Last Edited Time=Dec/27/2020 22:23:05
#Sta/Elev= 164 
       0      84    .506  83.936   2.227  83.638  12.967  82.127  15.122  81.693
  16.377  81.534   16.87   81.37  17.432  81.214  18.591  80.874  19.589  80.617
  19.791  80.496  21.138  80.261  22.633  79.839  23.086  79.667    23.7  79.424
  25.003  78.904  26.191  78.406  26.759  78.152  27.577  77.566  27.791  77.503
  28.427  77.558  29.504  77.358  29.866   77.28  30.029  77.289  30.378  77.271
  30.818  77.245  31.258  76.966  32.556  76.936  33.136  76.979  33.977  76.996
  35.004  76.939  40.073  74.025  43.225  72.012  56.989  63.416  57.309  63.545
  57.831  63.266  57.974  63.326  58.787  62.986   59.62  62.922  60.103  62.911
  60.771  62.969  61.396  62.933  61.831  62.998  64.942  63.224  65.606  63.114
  66.877  62.908  66.919  62.905  66.927    62.9    67.2  62.951  67.601  63.029
  67.633  63.026  68.044  62.836   68.51  62.793  69.659    62.8  70.423  62.809
   71.42  62.834  72.558  62.805  72.931   62.79  73.136  62.776  73.476  62.756
  74.503  62.776  74.773   62.69  75.924  62.619  76.222  62.595  76.772  62.514
  77.667  62.444  78.873  62.398  79.418  62.405  79.909  62.379   80.37  62.276
  80.939  62.036  81.508   61.92  82.594  61.915  83.856   61.93   85.39  61.602
  86.445   61.57  86.796  61.537  87.058  61.591  88.374   61.39  89.822   61.41
  90.109  61.385  90.177  61.402  90.506  61.402  91.776  61.521  95.879  61.384
  96.171  61.379  96.237  61.361  96.997  61.147  98.629  60.601  99.331  60.343
  99.687  60.196  101.31   59.71 101.872  59.765 102.528  59.661 103.336  59.583
 104.167  59.334  105.32  58.711 108.097   57.92 109.332   57.86 111.035  57.922
 111.767  57.819 111.964  57.823 113.883  57.942 116.558  57.897 117.076  57.898
 117.927  57.879 120.166  57.836 120.598   57.85 122.399   57.76 122.792  57.743
 122.911  57.743 123.029  57.741 124.176  57.768 128.661   57.87 132.855  57.902
 145.765  59.643 147.607  59.732 148.748  59.811 152.429   59.96 158.417  60.673
 160.339  60.825 163.055  60.932  165.71  61.139 166.543  61.174 176.054  60.776
 216.575  77.747 216.598   77.75 216.612  77.748 216.616  77.749 216.669  77.751
 217.069  77.687 222.484  76.866 223.052  76.682 223.728  76.794 224.009  76.769
 225.117  76.953 225.218  77.083 226.831  77.018 226.857  77.017 226.878  77.018
 227.065  77.053 229.757  77.532 230.113  77.541 230.885  77.547 234.856  77.894
 235.127  77.903 235.476  77.905 236.329  78.011 236.417  78.024 236.485   78.02
 237.088  78.004 238.334  78.005 239.346  77.895 240.528  77.852 241.838  77.805
  242.65   77.78 243.029    77.8 243.376  77.771 247.465   77.56 248.372  77.332
 248.813  77.224 249.435  77.143 250.861  76.938 255.772      76
#Mann= 3 , 0 , 0 
       0     .04       0       0     .04       0 255.772     .04       0
Bank Sta=0,255.772
XS Rating Curve= 0 ,0
XS HTab Starting El and Incr=57.891,0.3, 87 
XS HTab Horizontal Distribution= 5 , 5 , 5 
Exp/Cntr=0.3,0.1

Type RM Length L Ch R = 1 ,730.48  ,73.34,73.34,73.34
XS GIS Cut Line=3
417797.266108007182608.896852886417901.140357747182602.475285896
418012.525454545182595.589393939
Node Last Edited Time=Dec/30/2020 13:21:48
#Sta/Elev= 151 
       0      74    .116   73.95  11.422  69.054  23.732  63.938    25.4  63.231
  25.429  63.219  25.468  63.206  25.591  63.186  26.889  62.507  27.314  62.601
  28.353  62.759  28.532  62.844  29.506  62.829  33.313  62.664  34.277  62.625
  34.481  62.624  34.557  62.607  34.959  62.657  35.767   62.71  35.895  62.709
  36.306  62.592  36.783  62.431  37.023  62.437  38.495  62.489  38.775  62.489
  40.216  62.457  40.955  62.442   41.28  62.403  42.189  62.226  42.732  62.199
  44.029   62.21   44.31  62.236  44.514  62.224  46.217  62.162  46.263  62.159
  46.444  62.151   48.57  61.906  49.481   61.98  50.001  62.007  50.412  61.986
  51.109  61.895  52.278  61.765  52.907  61.541   53.41  61.376  54.386  61.253
  55.996  61.131  56.176  61.114  56.654  61.152  58.234  61.197   59.44  61.096
  59.618  61.064  59.714  61.067  60.202   60.99  61.559  60.772  61.879  60.841
  62.349  60.971  62.571  60.883   63.48  60.837  64.168  60.931  67.797   60.94
  70.699  60.874  70.944  60.863  71.106  60.852  71.991   60.86  72.607  60.859
  75.907  60.801  81.929  59.345  85.818   58.16  86.059  58.049  86.601  58.011
  99.665  57.931 103.865  57.928 104.073  57.927 110.329  57.899 117.982  57.944
 122.686  58.145 122.981  58.263 123.601  58.146 124.124  58.047 125.771  58.092
 126.009  58.125 128.131  59.227 128.502   59.39 129.096  59.486 131.344  59.811
 132.809  60.022 133.556  60.419 133.749  60.561 134.196  60.762 134.661  60.869
 135.857  60.713 136.909  60.609 137.185  60.596 139.015  60.514 139.417  60.512
 139.748  60.736 140.191  60.698 141.889  60.666 143.385  60.725 144.573  60.762
 144.961  60.893 145.314  60.896 145.498  60.941 146.319  60.948  146.91  60.933
 147.614  60.895 148.707  60.802 149.842  60.572 150.349  60.915 150.972  60.932
 151.051  60.859 151.764  60.794 153.063   61.02 155.058  61.117 155.657  61.118
 155.756  61.166   156.2  61.254 156.517  61.248 156.716  61.248 156.773  61.261
 161.339  61.166 162.974  61.214 185.355   65.32  187.77  65.252 188.661  65.372
 190.379  65.421 198.758  66.576 198.803   66.58 198.879  66.574 198.992  66.588
 199.629  66.617 200.347  66.545  201.26  66.448 201.945  66.539 203.114  66.447
 203.345  66.519 203.532  66.458 204.386  66.677 205.237  66.813 205.732  66.776
 206.808  66.679 207.811   66.59   209.4  66.354 209.686  66.318 210.761  66.535
 211.033  66.537 211.145  66.534 213.486  66.533 213.648  66.519 215.358  66.073
  215.67      66
#Mann= 3 , 0 , 0 
       0     .04       0       0     .04       0  215.67     .04       0
Bank Sta=0,215.67
XS Rating Curve= 0 ,0
XS HTab Starting El and Incr=58.049,0.3, 53 
XS HTab Horizontal Distribution= 5 , 5 , 5 
Exp/Cntr=0.3,0.1

Type RM Length L Ch R = 1 ,657.14  ,121.19,121.19,121.19
XS GIS Cut Line=3
417794.969278557182556.932845691417902.544994235182529.842183296
       417987.81       182508.37
Node Last Edited Time=Dec/28/2020 13:12:06
#Sta/Elev= 133 
       0      66   2.308  65.516   4.141  64.673   4.307  64.636   4.886  64.499
   6.632  64.246   9.214  63.892   9.608  63.806  10.596   63.59  11.307  63.585
  11.634  63.616  11.968  63.591  12.342  63.525  14.754  63.132  15.114  63.066
  15.664  63.028  16.519  62.884  16.723  62.868  17.923  62.847  19.303  62.605
  19.638   62.56  20.297  62.556  21.354  62.533  22.095  62.626  22.489  62.677
  23.003   62.62  24.765  62.432  25.152  62.643  25.248  62.726  25.623  62.675
  28.375  62.541  31.829   62.58  32.113  62.567   32.79  62.441  33.616  62.272
  33.671  62.267  33.703  62.257  33.799  62.261  35.078   62.26  35.395  62.363
  36.176  62.386  38.144  62.133  38.905  62.121  39.801  62.155  41.693  62.048
  43.403  62.078  43.418  62.078  44.763  62.028  44.844  62.046  45.319  62.038
   47.24  62.041  48.004  62.054  48.276  61.962  49.546  61.963  50.825   61.97
  51.487  61.937  52.468  61.913  52.895  61.821  53.037  61.829  54.001   61.78
  54.425  61.737  54.572  61.746  55.192  61.637  55.627  61.622  56.996  61.545
   57.14   61.53   57.18  61.495   57.89  61.419  58.094  61.297  58.876   61.22
   60.25    61.4  60.347  61.414  60.483  61.407  64.211  60.963  65.705  60.641
  65.746  60.629  65.789  60.631   67.22  60.617   67.56  60.624  69.099  60.758
  69.257  60.712  69.412  60.659  69.418  60.658  70.175  60.493  71.431  60.491
  71.857  60.653  75.078  60.511  80.951  59.636  90.101  58.426   93.77  57.964
  96.013  57.996   98.94  57.812 110.654  57.839 110.934  57.842 112.238  57.858
 113.185  57.876 114.397  57.854 116.364  57.887 116.551  57.888 119.134  57.775
 122.467  57.764 124.041  57.662 124.845  57.753 127.852  59.169 128.062  59.164
 128.343  59.413 130.692  60.731 133.218  61.879 134.878  62.147 135.175   62.24
 135.332  62.279 137.566  62.759 139.601    62.8 139.845  62.791 140.361  62.818
 143.359  62.851  144.41  62.806 144.654    62.8  146.39    62.8 147.752  62.799
 147.797  62.802 148.688  62.772 149.283  62.786 151.597  62.836 152.245  63.108
 152.616  63.294 169.011  70.965 194.826  84.034 194.959  84.019 195.142  84.019
 195.966  84.059 198.175  84.031 198.862      84
#Mann= 3 , 0 , 0 
       0     .05       0       0     .05       0 198.862     .05       0
Bank Sta=0,198.862
XS Rating Curve= 0 ,0
XS HTab Starting El and Incr=57.812,0.3, 87 
XS HTab Horizontal Distribution= 5 , 5 , 5 
Exp/Cntr=0.3,0.1

Type RM Length L Ch R = 1 ,535.95  ,75.37,75.37,75.37
XS GIS Cut Line=3
417747.059411765182447.588779412417857.393548608182417.709456407
417977.663742972182385.139373494
Node Last Edited Time=Dec/28/2020 13:18:26
#Sta/Elev= 100 
       0      72  26.582  65.743  28.996  65.876  31.349  65.022  31.983  65.025
  32.028  65.013  33.109  64.917   33.96  64.621  34.485  64.447   35.33  64.208
  37.407  63.665  37.616   63.63  38.369  63.506  38.465  63.468   38.81  63.335
  39.446  63.094  40.365  63.053  40.381   63.05   41.27   62.82  41.322  62.801
  41.973  62.634  43.994  62.411  43.999   62.41  44.008   62.41  45.407   62.39
  46.308  62.267  46.335   62.26  46.351  62.261  48.066  62.331  49.535  62.348
   52.25  62.459  54.091   62.37  74.107  59.151  77.165  58.419  81.671  57.375
  82.877  57.476  84.434    57.4  86.353  57.248  87.516  57.246  90.111  57.258
  90.574   57.29  94.783   57.26  96.211  57.257  96.604   57.26  96.891  57.262
 101.737  57.266 101.902  57.263 104.162  57.375 105.607  57.555 106.555  57.682
 107.502  57.649 108.137  57.695 113.628  57.783 114.308   57.78 114.732  57.778
 120.655  57.846 120.809  57.803 122.504  57.728 122.992  57.718  123.24  57.679
 124.911  57.607 125.038  57.554 125.635  57.462  126.31  57.436  126.62  57.296
 127.312  57.302 128.433  57.317 130.293    57.4 133.833  57.328 136.713  57.241
 137.923  57.302  139.53  57.494  140.45  57.506 140.644  57.508 141.428  57.628
 157.596  62.036  178.97  66.141 181.776  66.806 189.232  68.514 189.628  68.593
 190.718   68.79 191.994   68.95 195.532  69.657 196.514  69.681 197.211  69.814
 201.225  69.572 202.024  69.693 202.732  69.781 204.459  70.492 205.166   70.82
 205.176  70.859 205.404   70.86 206.286  71.351 208.028  72.117 208.367  72.311
 213.344  76.192 217.452  79.226 230.794   89.44 231.575  89.981 238.911      96
#Mann= 3 , 0 , 0 
       0     .02       0       0     .02       0 238.911     .02       0
Bank Sta=0,238.911
XS Rating Curve= 0 ,0
XS HTab Starting El and Incr=57.391,0.3, 100 
XS HTab Horizontal Distribution= 5 , 5 , 5 
Exp/Cntr=0.3,0.1

Type RM Length L Ch R = 1 ,460.58  ,73.91,73.91,73.91
XS GIS Cut Line=3
417714.781081081182362.938918919417840.104638966  182344.5078815
417953.727474037182327.797641541
Node Last Edited Time=Dec/28/2020 13:26:14
#Sta/Elev= 175 
       0      76    .911  75.813    .938  75.806    .946  75.804    .962  75.802
   1.014  75.751   4.038  73.728   5.252  73.375   5.772  73.239   6.176  73.211
   7.602  73.167   8.128  73.239   9.072  73.232   9.143  73.237   9.163  73.238
  10.829  72.998  11.013  72.974  12.427  72.999  12.959  72.981  15.994  71.805
   16.01    71.8  17.131  71.133  17.277  70.985  17.613  70.755  18.327  70.227
  18.699  70.228  18.877  70.503    19.3  70.016  19.479  69.909  19.623  69.896
  21.415  69.572  22.283  69.294  22.757  69.165  22.847  69.131  23.351  69.008
  24.332  68.942  24.356  68.943  24.376  68.935  24.615  68.729  24.873  68.641
   25.66   68.49  25.809  68.406  26.623  68.174  27.092  68.024  27.401  67.991
  28.888  67.736  29.334  67.656  30.057  67.483   30.57   67.46  30.655  67.535
  30.961  67.495  32.011  67.219  32.688  67.043  33.059  66.975   35.07  66.454
  36.236  66.214   36.85  66.034  37.503  65.845  39.242  65.295  40.417  64.957
  40.542  64.936  41.139  64.853  41.711  64.765   41.88  64.746  43.653  64.176
   43.78  64.128  45.024  63.743  47.428  63.352  47.828  63.252  50.256   62.76
  51.452  62.728  53.246  62.429  55.246  62.536  55.593  62.543  56.301   62.54
  57.151   62.54  57.644  62.514  58.203  62.385  59.471  62.148  59.536  62.143
  60.354  62.123  62.335  62.062  62.567  62.046  64.037  61.996  64.431  61.994
  65.817  61.978  67.653  61.952  67.751  61.952  69.198   61.87  69.377   61.86
  69.393   61.86   71.02  61.884  71.941  61.819  73.126   61.77  73.389   61.79
  73.635  61.794  74.272  61.822  75.092  61.775  75.795   61.74   76.17  61.749
  78.099  61.744  78.157   61.74  78.235   61.74  78.349  61.739   80.55  61.764
  81.142  61.716  82.808   60.38   84.05  59.363  84.953  58.065  85.429  58.006
  86.512  57.406  87.209  57.189  87.491  57.192  88.155  57.086  90.731  57.015
  91.126   57.06  92.178  57.105  93.424  57.141  96.435  57.129  97.776  57.097
  98.457  57.034 100.896  57.067 101.773  57.067 101.981  57.068  102.31  57.043
 103.556  57.033 104.261  57.124 113.031   57.42 118.397  57.492 118.787  57.451
 119.741  57.386 119.797  57.384 120.007  57.376 120.588  57.363 123.928  57.311
 126.672  57.223 129.792  57.122 130.403  57.075 130.723  57.036 131.554  56.966
 131.972  56.908 132.306  56.919 133.729   56.98 135.488  56.917 137.583  57.029
  137.65   57.03  137.68  57.028 139.053  56.893 139.336  56.918 140.497  56.962
 140.996  56.934 142.332  56.915 143.136  56.909 143.757  56.947 144.464  56.983
 144.723  56.994 145.001  56.983 146.833  56.921 148.483  57.033 148.858  57.052
 149.943  57.163 150.787  57.228 150.886  57.225 152.416  57.662  153.32   57.89
 159.298  59.448 187.058  66.818 190.477  67.991 193.601  68.861 199.183  70.376
 200.505  70.697 209.464  72.914 210.223  72.967 210.584  72.964 241.517      88
#Mann= 3 , 0 , 0 
       0     .01       0       0     .01       0 241.517     .01       0
Bank Sta=0,241.517
XS Rating Curve= 0 ,0
XS HTab Starting El and Incr=57.043,0.3, 100 
XS HTab Horizontal Distribution= 5 , 5 , 5 
Exp/Cntr=0.3,0.1

Type RM Length L Ch R = 1 ,386.67  ,95.11,95.11,95.11
XS GIS Cut Line=3
417710.845151515182269.071616162417833.605517987182270.989083812
417960.717619048 182272.97452381
Node Last Edited Time=Dec/28/2020 13:34:59
#Sta/Elev= 189 
       0      74  11.371  68.687  12.031  68.413  12.968  68.011  13.874  67.812
  14.452  67.673  14.645  67.479  15.073  67.263  15.093  67.207  16.389  66.882
  16.711  66.811  16.766  66.797  16.849  66.768  16.887   66.83  17.039  66.736
  18.205  66.066   18.37      66  18.493   65.93  20.351   65.17  20.438  65.136
  20.479  65.163  20.637   65.11  20.803  65.101  21.605  64.915  21.631  64.899
  22.197  64.827  23.752  64.425  24.817  64.107  26.928  63.473  26.961  63.516
  27.272  63.317  27.398   62.96  27.572  63.147  27.976  62.917   28.52  62.586
  28.946  62.232  29.836  61.894  30.123  61.897   30.17  61.918  30.554  61.864
  31.285  61.902  32.072  62.336  32.615  62.299  33.763   62.25  34.219  62.187
  34.331  62.211    34.7  62.226  35.434   62.33  36.203  62.291   36.21  62.298
  36.282  62.297  36.439  62.262  36.512   62.25      38  61.943   39.19  61.743
  40.253  61.654  40.784  61.639  43.558  61.599   43.81  61.573  44.736  61.673
  47.253  61.532  49.435  61.415  50.952  61.386   52.17  61.325  52.925  61.318
  53.624  61.219  54.131  61.265  54.974  61.165  55.009   61.16  55.015   61.16
  55.035  61.162  55.312  61.184  56.624   61.28   56.96   61.26  56.963   61.26
  57.752  61.214  58.513  61.206  59.135   61.24   59.18   61.24  59.274  61.232
  60.366  61.174  60.379  61.168  60.459  61.161  60.685  61.223  61.035  61.234
  61.827  61.226  62.413  61.269  62.594  61.279  62.708  61.279  64.866  61.195
  64.971  61.191  64.981  61.191  64.996   61.19  65.022  61.191  65.981  61.224
   66.24  61.232   68.03   61.14  68.304  61.146   68.84  61.187  70.511  61.238
  70.982  61.261  71.372  61.282  71.593  61.283  72.291  61.375  72.314  61.378
  72.724  61.426  72.891  61.439  74.138  61.344   74.95  61.348  75.839  61.385
  76.971  61.368  77.154  61.388  77.353  61.395  77.635  61.369  78.232  61.348
  79.172  61.366  79.617  61.351  80.878  61.253  81.566  61.255   82.16  61.218
  82.709  61.203   83.14  61.149  83.848  61.108  84.965  61.065  95.206  58.052
  98.679  56.956  99.416  56.884 100.048  56.856 101.836  56.848 103.319  56.885
 103.719  56.878 103.951  56.906 106.169   56.94 106.775  56.913  108.03  56.908
 109.592  56.954 110.758  56.956 112.446  57.014 113.105   57.05 114.833  57.021
 116.059  56.948  117.09  56.912 118.554  56.979 119.263  56.998 121.422  56.981
 121.538  56.978 121.707  56.976 122.775  56.956 123.018  56.952 124.107  57.014
  124.76  57.046 126.459  56.896 126.713  56.872 126.826  56.874 128.027  56.904
 129.635  56.949 129.768  56.947 129.956  56.945 131.403  56.917 132.405  56.855
 133.541  56.859 135.664  57.017 137.021  56.989  138.09  56.942 138.345  56.907
 140.569  57.014 142.074  57.054 142.381  57.071 143.325  57.071 143.417  57.087
 143.741  57.121 144.102  57.173 144.527   57.23 144.963  57.244 151.207  59.942
 208.572   80.94 213.806  82.616 216.016  83.121 220.191  83.888 220.346  83.938
 222.366   84.46 240.021  89.217 240.403  89.269 243.746  90.286 245.905   90.49
 245.917  90.491  246.03  90.543 249.079  91.741 249.903      92
#Mann= 3 , 0 , 0 
       0     .02       0       0     .02       0 249.903     .02       0
Bank Sta=0,249.903
XS Rating Curve= 0 ,0
XS HTab Starting El and Incr=56.998,0.3, 100 
XS HTab Horizontal Distribution= 5 , 5 , 5 
Exp/Cntr=0.3,0.1

Type RM Length L Ch R = 1 ,291.56  ,175.87,175.87,175.87
XS GIS Cut Line=3
417704.803311439182222.368527641417814.015758496182179.766825184
417894.882497746182148.222245266
Node Last Edited Time=Dec/28/2020 13:46:13
#Sta/Elev= 128 
       0      68   1.118  67.952   6.482  65.659  13.234  62.271  15.047  62.388
  15.811  62.367  16.471   62.38  16.674   62.39  17.032  62.392  17.218  62.387
  18.035  62.366  18.677  62.258   19.07  62.296  30.052  61.402  33.922  61.127
   36.01  60.958  36.248  60.951  36.735    60.9  36.869   60.91  38.405  60.659
  38.436  60.647  39.625  60.565  40.892  60.549  42.319   60.49  42.491   60.51
  42.695  60.487   43.55  60.472  44.727  60.546  46.031   60.73  46.654  60.806
  47.565  60.889  48.354  60.992  53.313   61.01  53.853  61.016  54.095  60.995
  54.829  60.982  55.026  60.996  56.223  60.954   56.59  60.875  57.103  60.912
  57.446   60.92  58.628  60.905  59.452  60.872  59.717  60.863  59.747  60.922
  60.266  60.929  60.321  60.856  61.191  60.829   61.94   60.79  62.376  60.781
  62.897   60.78  64.162  60.905  64.383   60.93  64.442  60.907  64.979  60.872
   65.74  60.747  66.508  60.834  68.295  60.852  68.345   60.85  68.362   60.85
  68.938    60.8  69.345  60.754   69.46   60.74  69.472   60.74  69.478  60.741
  69.506   60.74  72.124  60.718  72.931  60.692  73.488  60.674  74.158  60.652
  84.175  59.174  85.894  58.805  89.234  58.204  94.712  57.064  97.685  57.039
 100.228  57.159 103.245  57.032 106.071      57 106.668  56.989 108.658    56.9
 109.437   56.88 112.078   56.75 113.983  56.784 114.858   56.81 115.348  56.781
 116.325  56.775 117.227  56.768 120.174  56.746  120.83  56.739 120.883  56.738
 123.619    56.7 124.234    56.7 125.097  56.714 126.698  56.721 128.934  56.616
  129.62  56.591 130.453  56.625 131.982  56.675 132.837   56.69 134.411  56.713
 136.131  56.747 136.884  56.745 138.827  56.683 139.202  56.667 140.552  56.978
 157.815  60.868 159.207  60.961 160.185  61.018 161.347  61.021 163.967  61.287
 165.004  61.404 165.093  61.414 169.289   62.21 169.646  62.286 169.853   62.35
 170.268  62.423  171.02  62.234 174.784  62.487 177.322  62.973 178.847  63.103
 179.335  63.168 181.344   63.41 185.033  64.379 185.515  64.421 185.817  64.502
 189.035  64.929 190.451  65.212 204.029      68
#Mann= 3 , 0 , 0 
       0     .02       0       0     .02       0 204.029     .02       0
Bank Sta=0,204.029
XS Rating Curve= 0 ,0
XS HTab Starting El and Incr=56.741,0.3, 38 
XS HTab Horizontal Distribution= 5 , 5 , 5 
Exp/Cntr=0.3,0.1

Type RM Length L Ch R = 1 ,115.69  ,,,
XS GIS Cut Line=3