Geom Title=1673 Geometry Data
Program Version=5.07
Viewing Rectangle= 2432313.80426177 , 2435032.87758157 , 905572.417543329 , 903670.251311452 

River Reach=strong river    ,RiverCL         
Reach XY= 32 
        2433358.        903688.9      2433395.61       903859.08
      2433406.79       904030.46      2433391.92       904135.22
      2433323.33       904226.73      2433170.99       904361.07
      2433041.15       904389.22      2432891.24       904465.87
      2432742.74       904555.19      2432607.99       904654.46
      2432565.11       904737.82       2432560.6       904835.35
       2432599.2       904933.89      2432771.02       905040.15
      2432913.66       905071.13      2433064.05       905083.53
      2433251.07       905098.94      2433623.82       905168.61
      2433794.06       905193.82      2434039.87       905249.16
      2434182.02       905298.12      2434321.89       905359.37
      2434431.05       905371.01      2434515.46       905314.77
      2434541.66       905231.88       2434590.4        904991.9
      2434613.25       904879.67       2434670.5       904793.38
      2434720.47       904748.78       2434810.6       904709.56
      2434903.16       904682.86      2435006.22        904673.8
Rch Text X Y=2434594.165,904427.575
Reverse River Text= 0 

Type RM Length L Ch R = 1 ,4466.44 ,117.62,117.62,117.62
XS GIS Cut Line=3
2433571.78269818903820.9684792572433392.73946942903846.101623975
2433192.34682969903874.231686473
Node Last Edited Time=Jun/27/2019 10:54:45
#Sta/Elev= 166 
       0     282   4.146 282.169   5.514 282.174  12.303 282.818  14.309 283.086
  17.103 283.281   19.13 283.218  19.399 283.327  26.524 284.123  27.348 284.135
  28.333 284.189  28.941 284.198  30.837 284.334  31.704 284.355  32.479 284.398
  34.805  284.48  36.191  284.42   37.51 284.435   38.19 284.461  40.303  284.38
  42.742 284.662   44.08 284.681  44.304 284.559  45.531 284.562  46.376 284.552
  49.273 285.013  49.491 285.027  49.617 285.018  50.719 285.048  52.637 285.026
  52.792 285.028  52.989 285.025  55.198 284.913   56.78 284.937  58.826 284.951
  63.949 284.322    65.1 284.195  78.791 282.217  92.401  280.49 123.813 273.172
 134.266 269.086 137.822 267.299 145.446 264.192   146.8 263.567 147.642  263.21
 149.323  263.18 149.342  263.18 149.561 263.189 150.688 263.224 151.146  263.25
 151.898 263.208 152.957  263.09 153.057 263.108 154.209 263.389  154.31 263.321
 154.473 263.258 154.888 263.312 156.443 263.138 156.667 263.146 158.164 263.225
 158.524 263.235 159.886 263.202 160.381  263.21 161.604 263.276 163.485  263.02
 166.103 262.867 167.336 262.713 167.525  262.74 168.252 262.768 170.489 262.744
 180.799 262.694 181.567  262.69 184.344 262.733 185.215 262.764  186.57 262.737
  188.32 262.751 188.997 262.758  191.06 262.769  197.69 262.737 201.819 262.711
 203.143 262.838 211.315 262.833 213.993 262.765 216.038 262.895 216.225 262.994
 216.544 263.035 218.239 263.621 238.839  270.42 242.109 271.303 285.963 285.674
 286.961 285.777 291.362 285.796 291.772 285.843 292.236 285.767 292.654 285.754
 293.092 285.755 293.539  285.77 293.975 285.743 294.824 285.819 295.736 285.713
 296.159 285.747 297.034 285.734 297.489 285.687 297.925 285.687 298.406 285.624
 298.819 285.668 310.439 285.609 311.714 285.688 321.655 285.768 323.468 285.749
 323.918 285.675 331.244 285.715 334.738 285.566 336.882 285.237 337.238 285.391
 337.559 285.523 337.648 285.548 337.745 285.491  338.51 285.355 338.519  285.36
 338.524  285.36 342.287   285.4 342.579 285.435 342.894 285.402 343.173 285.435
 343.231 285.412  343.31 285.446 343.583 285.472 343.829 285.552  343.87 285.566
 343.965 285.566  344.47 285.613 344.532 285.591 344.576 285.584 344.838 285.536
 345.093 285.558 345.192 285.565 345.607 285.512 345.853 285.476 346.078  285.41
 346.269 285.431 346.307  285.46 346.346  285.44 346.406 285.469 346.758 285.469
  346.92 285.449 347.003  285.48 347.097 285.459 347.435 285.393 347.458 285.373
 347.482 285.407 347.763 285.389 347.874  285.43 348.105 285.431 348.225 285.394
  348.35 285.395 348.584 285.435 348.796 285.437  348.93 285.401  349.15 285.421
 349.237 285.404  350.52 285.366 351.322 285.409 353.675 285.609  367.58 285.229
 383.156 284.799
#Mann= 3 , 0 , 0 
       0     .03       0       0     .03       0 383.156     .03       0
Bank Sta=0,383.156
XS Rating Curve= 0 ,0
XS HTab Starting El and Incr=262.84,0.3, 77 
XS HTab Horizontal Distribution= 5 , 5 , 5 
Exp/Cntr=0.3,0.1

Type RM Length L Ch R = 1 ,4348.82 ,384.75,384.75,384.75
XS GIS Cut Line=3
2433643.20050125903951.9549302082433402.40257038903963.178719737
2433168.35860189903974.087701526
Node Last Edited Time=Jun/27/2019 10:54:45
#Sta/Elev= 109 
       0 280.532   65.94 280.567  85.767 280.856  86.948 280.716   87.16 280.507
  87.339 280.492  88.867 280.511  88.879 280.511  88.969 280.503  88.986 280.501
 102.659 279.378 102.923 279.394 140.772 276.362 157.819 272.887 158.729 272.585
 199.457 264.234 214.558 263.249 220.227 262.935 232.696 262.881 241.059 262.814
 246.416 262.771 253.883 262.816 262.183 263.354 270.933 263.562 321.659 278.701
 322.008 278.801 322.075 278.812 341.983 284.292 355.193  284.57 357.504 284.351
   357.6 284.357 358.069 284.402 358.251 284.408  358.46   284.4 367.499 284.403
 401.331 284.474  401.73 284.545 402.142 284.544 402.571 284.543 402.685 284.552
 404.341 284.569 404.775 284.521 405.256 284.335 405.565  284.34 405.997 284.335
 406.099 284.308 406.501 284.356 406.939 284.353 407.026 284.352 407.445 284.264
 407.972 284.265  408.33   284.4 408.732 284.341 409.126 284.397  409.51 284.421
 409.878  284.48 410.244 284.558 410.688 284.575 413.074 284.402 413.747 284.316
 413.824 284.318 414.148 284.411 414.344 284.353 414.478  284.31 414.525 284.322
 414.769  284.33  414.89 284.299 415.094  284.28 415.372  284.28 415.656 284.217
 415.689 284.213 415.759  284.23  415.98  284.28 416.313 284.213 416.554 284.308
 416.816  284.19 417.194 284.207 417.444 284.297 417.723 284.272     418 284.277
  418.26 284.246 418.452 284.362 418.694 284.284 418.875 284.387 419.072 284.364
 419.221  284.41 419.401 284.337 419.534 284.388 419.696 284.316 419.837 284.319
 419.967 284.299 420.161 284.369 420.257  284.39  420.36  284.43 421.417 284.464
 421.761 284.546 421.867 284.546 422.084 284.523  422.27 284.445 422.293 284.625
   422.5 284.524 422.601  284.57 422.702  284.57 424.176 284.604 425.256 284.601
 425.525 284.635 425.716  284.65 435.553  284.63 475.357 284.822
#Mann= 3 , 0 , 0 
       0     .03       0       0     .03       0 475.357     .03       0
Bank Sta=0,475.357
XS Rating Curve= 0 ,0
XS HTab Starting El and Incr=262.921,0.3, 73 
XS HTab Horizontal Distribution= 5 , 5 , 5 
Exp/Cntr=0.3,0.1

Type RM Length L Ch R = 1 ,3964.07 ,490.31,490.31,490.31
XS GIS Cut Line=3
2433347.35659819904379.1249274982433250.45713918904290.990945085
2433108.72557035904162.080343087
Node Last Edited Time=Jun/27/2019 10:54:45
#Sta/Elev= 50 
       0     278   4.049 277.947  55.425  277.35  69.107 278.395  74.735 276.432
  74.837  276.48  74.891 276.542  87.034 274.358   122.1 269.242 124.794 268.893
 130.985 267.986 166.561 262.778  166.79  262.76 167.044 262.826 171.727  266.36
 172.743  266.98 175.009 268.371 198.611 282.208 199.812 282.627 200.869 282.817
 202.676 283.195 203.688 283.291 205.006 283.339 214.224 283.562  218.46 283.691
  220.38 283.751 227.007 284.424 231.903  284.54 277.799 287.206 279.261 287.193
  281.17 287.211 282.436 287.189 286.857  287.22 289.185 287.092  290.38 287.086
 301.677 286.856 302.357 286.853 304.174 286.814 305.779 286.776  307.13 286.873
 308.748 286.889 309.899 286.809  312.32 286.669 314.795 286.606 316.662 286.563
 317.491 286.573 318.489  286.55 320.365 286.531 322.497  286.49 322.573 286.489
#Mann= 3 , 0 , 0 
       0     .03       0       0     .03       0 322.573     .03       0
Bank Sta=0,322.573
XS Rating Curve= 0 ,0
XS HTab Starting El and Incr=262.91,0.3, 81 
XS HTab Horizontal Distribution= 5 , 5 , 5 
Exp/Cntr=0.3,0.1

Type RM Length L Ch R = 1 ,3473.76 ,501.77,501.77,501.77
XS GIS Cut Line=3
2432955.30115239904692.9530694272432820.00698748904508.716306579
2432679.76906434 904317.74738339
Node Last Edited Time=Jun/27/2019 10:54:45
#Sta/Elev= 65 
       0 278.624   1.604 278.453   8.338 278.664  11.155 278.609  12.432 278.652
  12.717 278.627  16.166 278.548  57.591 281.493  70.758 281.265  73.757 281.195
 126.279 276.876 129.546  276.61 198.551 265.319 200.808 264.673 204.014 263.855
 206.435 263.241 207.372  263.25 209.051 263.244 210.896  263.26 211.424  263.26
 212.139 263.278 215.379 263.278 221.322 263.263 221.445 263.265 221.837 263.249
 225.011 263.171 227.104  263.19 228.578 263.208 229.184 263.215 230.994 263.224
 234.207  263.25 236.363  263.26 240.592 263.245 242.199 263.173 242.563  263.16
 243.574  263.18 249.209  263.26 249.959 263.235  252.28 263.236 252.852 263.228
 253.034  263.23 255.931 263.197 258.153 263.253 259.064 263.252  260.52 263.228
 312.475 272.247 321.435 273.732  337.57 276.272  360.23 281.449 361.669 281.474
 366.577 281.825 368.963 281.938 375.339 282.519 378.986  282.44 379.321 282.425
 379.832 282.467  380.67 282.434 382.987 282.377 389.503 284.514 395.156 287.333
 445.319 281.422 456.921 281.185 463.655 281.008 464.782 280.947 465.508 280.896
#Mann= 3 , 0 , 0 
       0     .03       0       0     .03       0 465.508     .03       0
Bank Sta=0,465.508
XS Rating Curve= 0 ,0
XS HTab Starting El and Incr=263.31,0.3, 80 
XS HTab Horizontal Distribution= 5 , 5 , 5 
Exp/Cntr=0.3,0.1

Type RM Length L Ch R = 1 ,2971.99 ,359.07,359.07,359.07
XS GIS Cut Line=3
2432774.81389105904807.099706502 2432579.8741546 904884.56624961
2432340.46184334 904979.70562175
Node Last Edited Time=Jun/27/2019 10:54:45
#Sta/Elev= 83 
       0     286  12.892 287.527  19.987 288.419   56.38 290.616  61.433  289.81
 130.023  279.44  133.66 279.317 139.435 278.276 141.318 278.013 145.987  277.46
 209.768 247.794 211.127 247.162 223.617 240.245 232.558 245.868 256.396 265.932
 267.447 276.431 268.214 276.733 269.986 277.354 270.595 277.623 274.708 277.528
  275.29 277.486 334.305 286.265 346.718 287.659 348.665 287.916 348.713 287.913
 349.028 287.881 349.445 287.879 350.879 287.837 351.972  287.81 352.868 287.785
 355.561 287.735 358.855  287.71 359.158 287.708 359.423  287.71  362.92 287.675
 366.377  287.64 366.621  287.64 366.906 287.653 370.185 287.775 372.159 287.788
  373.71 287.734 376.282 287.748 377.288 287.735 378.648 287.751 380.403 287.775
 381.191 287.779 382.528 287.763 386.178  287.74 387.878 287.696  389.91 287.599
 390.993 287.571 391.604 287.557  393.52 287.561 395.571  287.51 396.065 287.498
 396.922 287.477 399.231 287.403  400.33   287.4 402.662 287.334 405.392  287.28
 407.573 287.267 411.719 287.304 413.981 287.264 414.374 287.256 414.587  287.26
 417.176  287.38 418.895 287.398 419.965 287.363 421.994  287.41 422.872 287.416
 423.836 287.415 429.744 287.393 431.587 287.485 433.152 287.464 436.399 287.509
 438.191 287.504 442.085 287.509 444.229 287.495 458.062 287.302 461.428 287.252
 462.314  287.25 465.858  287.25 467.391  287.22
#Mann= 3 , 0 , 0 
       0     .03       0       0     .03       0 467.391     .03       0
Bank Sta=0,467.391
XS Rating Curve= 0 ,0
XS HTab Starting El and Incr=240.395,0.3, 100 
XS HTab Horizontal Distribution= 5 , 5 , 5 
Exp/Cntr=0.3,0.1

Type RM Length L Ch R = 1 ,2612.92 ,527.1,527.1,527.1
XS GIS Cut Line=3
2432960.30263943904764.0131932512432872.72247955905062.240385075
2432800.41581099905308.458418322
Node Last Edited Time=Jun/27/2019 10:54:45
#Sta/Elev= 80 
       0     282  41.056 284.373  53.846 284.585  57.013 284.647  66.932 284.566
  86.144  284.05 107.116 283.764 148.519 284.165 149.368 284.196 150.987 284.101
 168.722 285.304 170.253 285.357 182.528 285.765 189.027 286.037 272.051 264.669
 276.314  263.74 285.232 263.628 287.743 263.624 288.665 263.595 291.131 263.585
  293.38 263.531 293.501 263.531 294.255 263.535 298.724 263.567 301.811  263.59
 302.027  263.59 305.084 263.579 307.719 263.609 310.821 263.629 311.751 263.635
 312.651  263.63 314.967 263.582 320.707  263.53 321.548  263.53  325.43 263.536
 329.494 263.625 330.652 263.629 331.227 263.634 334.914 263.609 336.846 263.603
 339.523  263.66 340.879 263.631 351.716 263.552 353.903 263.731  357.27 264.576
 385.457 270.782  409.38 275.861 440.455 282.315  451.67 282.671 455.672 282.626
 488.435 283.647 497.387 284.333 497.599 284.355 499.079 284.493 499.578 284.555
   500.2 284.629  502.01 284.829 530.486 288.924 530.631 288.923 530.792 288.916
 531.172 288.909 535.047  288.83  535.18 288.828 538.237 288.782 540.601 288.818
 541.661 288.837 542.056 288.835 543.368  288.85 546.343 288.885 546.736 288.875
 549.263 288.927 549.341 288.931 549.541 288.926  553.33 288.891 556.176 288.824
 561.197 288.784 561.852 288.802 562.135 288.796 562.567   288.8 567.437 288.843
#Mann= 3 , 0 , 0 
       0     .03       0       0     .03       0 567.437     .03       0
Bank Sta=0,567.437
XS Rating Curve= 0 ,0
XS HTab Starting El and Incr=263.68,0.3, 84 
XS HTab Horizontal Distribution= 5 , 5 , 5 
Exp/Cntr=0.3,0.1

Type RM Length L Ch R = 1 ,2085.82 ,201.43,201.43,201.43
XS GIS Cut Line=3
2433446.73867493904942.2340808652433395.22472544 905125.88148929
2433325.64654039905373.927960085
Node Last Edited Time=Jun/27/2019 10:54:45
#Sta/Elev= 70 
       0     282   6.408 280.652  34.374 274.695  34.476 274.683  35.282 274.745
   35.72 274.719  37.074 274.607  57.014 273.755  61.893 273.578  62.972 273.544
  64.844 273.676  65.134 273.682   76.23 277.322  78.879 277.828  79.416 277.892
  79.751 277.823  97.001 273.718 114.003 274.191 157.054 283.186 188.134 295.098
 189.006 295.264 189.808 295.527 190.736 295.702 208.407 299.036 251.007 283.306
 251.963 283.546 261.158 283.935 299.629 280.001 306.611 280.463 313.692 280.659
 319.217 280.863 321.746 280.913 356.386 282.208 362.605 282.289 365.496 282.065
 366.062 282.258 366.463 282.252   368.8 281.917 377.752 281.081 380.141 280.662
  380.76  280.56 381.332 280.582 382.129 280.546 384.429 280.938 398.982 285.836
 400.412 285.999  407.55  284.73 408.133 284.892 410.566 283.706 411.526 283.735
 412.622  283.87 413.886 283.965  414.62 284.028 417.276 284.266 417.527  284.28
 419.023 284.374 420.766 284.517  422.73 284.733 424.068 284.766  425.13 284.745
 425.578 284.794 425.914 284.872 428.019 285.296  428.64 285.378 430.956  285.61
 430.957  285.61 435.729 286.428 435.873 286.434 439.203 288.025 448.356     292
#Mann= 3 , 0 , 0 
       0     .03       0       0     .03       0 448.356     .03       0
Bank Sta=0,448.356
XS Rating Curve= 0 ,0
XS HTab Starting El and Incr=273.694,0.3, 84 
XS HTab Horizontal Distribution= 5 , 5 , 5 
Exp/Cntr=0.3,0.1

Type RM Length L Ch R = 1 ,1884.39 ,203.29,203.29,203.29
XS GIS Cut Line=3
2433617.91545393904977.839431378 2433593.2257417905162.888077216
2433563.69329598905384.232863963
Node Last Edited Time=Jun/27/2019 10:54:45
#Sta/Elev= 90 
       0     294   5.666 295.109   9.966 295.918  10.524   295.9  13.078 295.933
  14.297 295.938  15.481 295.844  15.938  295.84  17.066 295.882  20.265 295.941
  21.712  295.96  21.828 295.967  22.405 295.956  27.371 295.856  28.202 295.901
   28.72 295.916  29.774 295.475   51.83 289.439  64.047 286.011  66.985 285.185
  71.996 283.886  72.451 283.798  73.042 283.714  75.035 283.629  75.511  283.61
  77.664 283.467  77.847 283.452  78.998 283.358  79.205 283.376  80.457 283.491
  82.312  283.09  84.038 282.722  84.606 282.935  84.878 282.917  86.021 282.938
  86.498 283.032  88.764 282.584  89.833 282.409  91.072 282.526  91.259 282.487
  94.148 282.132  94.571 282.011  95.538 281.941  95.599 281.921  95.718 281.893
  96.627 281.456  97.443 281.098  98.663 281.034 101.184 280.966  101.92 280.884
 102.059 280.895 103.961 280.742 106.205  280.27 107.097 280.119 108.145 279.879
 123.073 275.957 156.472 268.092 161.128 265.688 163.812 263.895 174.591 263.795
 186.688 265.548 186.924 265.582 207.971 267.437 232.173 268.618 242.985 271.039
 273.506  276.52 278.554 276.716 304.705 308.493 308.634 312.799 309.971 314.736
  310.27 315.242 310.833 316.103  311.34 316.682 312.734 318.224 315.331 315.144
 316.027 314.715  337.24 297.184 359.284 283.492 360.345 283.382  362.17 283.291
 362.583 283.288 362.972  283.29 363.323 283.277 369.436 283.218 372.917 283.398
 375.772 283.489 383.647 283.872 402.332 285.597 405.439 285.572 409.995     286
#Mann= 3 , 0 , 0 
       0     .03       0       0     .03       0 409.995     .03       0
Bank Sta=0,409.995
XS Rating Curve= 0 ,0
XS HTab Starting El and Incr=263.945,0.3, 100 
XS HTab Horizontal Distribution= 5 , 5 , 5 
Exp/Cntr=0.3,0.1

Type RM Length L Ch R = 1 ,1681.1  ,421.68,421.68,421.68
XS GIS Cut Line=3
2433832.03826122905031.9115714482433794.12594722905193.829481034
2433730.78912998905464.331699638
Node Last Edited Time=Jun/27/2019 10:54:45
#Sta/Elev= 90 
       0  289.16   8.493 289.408  13.604 289.584  14.223 289.559  14.878 289.271
   15.65 289.395  17.451 289.571  18.708 289.613  18.929 289.576  20.086 289.532
  21.333 289.533  23.245 289.653  24.299  289.68   25.53 289.659  26.563  289.64
  29.222 289.731  30.536 289.761  30.976 289.754  31.685 289.744   32.33 289.741
  33.125 289.762  41.598 289.704  62.262 289.648   66.01 289.643  67.271  289.61
  67.526   289.6  68.978 289.567  69.677 289.588  72.866  289.67  73.438 289.653
  74.123 289.682  74.283  289.71  74.491 289.693  77.813 289.723   78.52 289.739
   78.92 289.751   83.41 289.684 105.652 290.932 109.051 291.017 112.036 291.116
  115.43 291.371 116.259 291.428 161.081 290.794 166.297 290.024 166.317 290.021
 168.178 290.891 168.218 290.902 168.318 290.894 242.549 279.873 261.124 279.775
 274.639  284.58 284.776  282.04 286.371 281.734 287.281  281.81 290.879 282.467
 319.091 286.237 325.045 286.167 325.509 286.178 326.905 286.277 327.333 286.251
 328.027 286.254  329.12 286.288 330.509  286.28 331.036 286.262 331.923 286.262
 335.945   286.2 336.442 286.202 336.576 286.193 337.754 286.166 339.505 286.167
 341.484  286.13 344.806  286.13 348.175 286.105 349.219 286.086 350.096 286.116
 353.039 286.187 354.459 286.224 354.632 286.262 355.316 286.314 355.939 286.314
 357.245 286.342 359.028  286.36 359.451 286.338 361.675 286.281  369.01 286.134
 379.079 286.016 425.145 283.801 442.635 282.767  442.96 282.758 444.115 282.655
#Mann= 3 , 0 , 0 
       0     .03       0       0     .03       0 444.115     .03       0
Bank Sta=0,444.115
XS Rating Curve= 0 ,0
XS HTab Starting El and Incr=279.925,0.3, 38 
XS HTab Horizontal Distribution= 5 , 5 , 5 
Exp/Cntr=0.3,0.1

Type RM Length L Ch R = 1 ,1259.42 ,502.77,502.77,502.77
XS GIS Cut Line=3
2434267.93893189905126.0362708662434199.82550251905305.918708981
 2434105.9757446905553.768852806
Node Last Edited Time=Jun/27/2019 10:54:45
#Sta/Elev= 244 
       0     274    .346  273.92    .386 273.925    .747 273.915   2.276  273.96
   2.706  273.89   3.141 273.903   5.757 274.439   5.826 274.451   5.936  274.45
   6.851 274.373   8.392 274.553   8.711 274.583   8.731 274.577   9.075 274.612
  12.114 274.877  13.115 274.969  13.439 274.917  16.048  274.84  17.317 274.908
   17.76 274.986  18.083 274.962  18.686 274.957   18.87 274.919  20.198 274.984
  20.974 275.064  22.127  275.14  24.232 275.156  29.799  275.18  34.189 275.169
  37.015 275.121  37.719 275.099  39.933 275.133  40.522 275.127  40.689  275.14
  41.184 275.073   42.08 275.049  43.797  275.11  45.343  275.22  46.549  275.32
  49.778 275.024  50.492 274.927  51.639 274.944  52.171 274.856  53.552 275.059
  54.591 275.115  54.776 275.126  54.967 275.126  57.904 275.004  58.238 274.957
  59.381 274.852  61.505 274.886   63.15 275.089  65.688 275.148  65.868  275.18
  69.154 275.312  71.675 275.421   72.25 275.394  74.186 275.237  77.556 275.395
  88.376 275.185  91.716 275.632  97.649  275.83 102.716 276.542 136.635 268.732
 146.662 264.216  147.79 263.842 148.505  263.82  152.15 263.803 153.603 263.871
 156.073 263.825   156.2   263.8 156.934  263.69 157.797 263.676 158.749 263.663
 159.048 263.663 160.979 263.715 162.223 263.711 162.946 263.665 164.295 263.658
 166.275 263.684 167.908 263.767 169.205  263.77 174.302 263.623 174.462 263.626
 174.657 263.618 179.235 263.785 180.175 263.758 180.196  263.76 182.379 263.695
 183.028 263.638  183.52 263.671 184.833 263.728 188.064 263.434 188.406 263.409
 188.611 263.444 189.749 263.678 191.784 263.674 192.346 263.678 193.259 263.685
 195.134 263.593 195.202 263.589 195.291 263.591 198.514 263.579 200.345  263.63
 202.573 263.655 205.123 263.687  207.16 263.694  209.03 263.677 210.334 263.709
 211.078 263.705 213.427 263.698 214.728 263.707 215.616 263.675 218.013 263.711
 219.042  263.71 221.087 263.551 221.669 263.537 221.879 263.556 223.216 263.674
 225.688 263.664 227.208  263.78 227.633 263.755 228.886 263.673 230.426 263.654
  231.82 263.709 232.292 263.695 233.011 263.746 235.923 263.591 236.291 263.629
 236.695 263.592 238.078  263.75 239.253 264.105 239.342 264.113 245.256 264.547
 245.793 264.606 246.095 264.616  247.03 264.503 249.219 264.589  251.89  264.45
 252.287 264.386 255.751 264.357 257.952 264.398 259.525 264.378 259.781 264.425
 260.502 264.616 312.391 284.403 315.369 285.493 322.697 287.634 323.221 287.625
  323.49 287.804 323.998 288.073 324.257 288.087 327.321 288.277 328.707 288.338
 329.206  288.33 330.658 288.342 332.979 288.327  334.08 288.306 334.811 288.361
 335.261 288.478 335.735 288.482 336.791 288.456 338.915 288.383 340.076 288.506
 340.995 288.449 341.258 288.435 342.044 288.563 342.774 288.601 344.646 288.507
 345.813 288.595 345.944 288.485 346.707 288.568 347.289  288.67  347.71  288.63
 348.644 288.598 350.506  288.51 351.776 288.547 352.806 288.508 353.019 288.627
 353.459 288.593 354.089 288.586  354.86 288.569 356.843 288.416 358.324 288.455
 358.667 288.494 358.933  288.52     359 288.551 359.448  288.63 362.124 288.404
 362.157 288.401 362.167   288.4 362.386 288.415  364.05 288.532 364.132 288.528
 368.348 288.559 368.357 288.559 370.395 288.545 370.469 288.555 370.658  288.55
 371.811  288.56 373.458 288.604 373.806 288.573 374.772  288.56 375.903 288.614
 376.329 288.664 377.062 288.817 377.572 288.788 378.753 288.645 380.058 288.567
 381.952 288.565  382.35 288.575 382.559 288.592 382.894  288.73 383.638 288.707
 384.264 288.673 385.751 288.715 386.312 288.751 387.604 288.802 388.554  288.82
 391.802 288.887 393.026 288.903 393.916 288.883 396.972  288.89  397.58 288.893
 397.692 288.894 399.437  288.96 400.395 288.936  403.41  288.86 404.081 288.836
 405.506 288.775 413.449 288.708 424.736 287.722 427.983 287.341 436.212 286.339
 450.811 284.622 451.349 284.596 452.286  284.49  452.29  284.49 452.301 284.491
 453.822  284.52 454.629 284.388  454.94  284.36  457.37     284
#Mann= 3 , 0 , 0 
       0     .03       0       0     .03       0  457.37     .03       0
Bank Sta=0,457.37
XS Rating Curve= 0 ,0
XS HTab Starting El and Incr=263.559,0.3, 85 
XS HTab Horizontal Distribution= 5 , 5 , 5 
Exp/Cntr=0.3,0.1

Type RM Length L Ch R = 1 ,756.65  ,210.98,210.98,210.98
XS GIS Cut Line=3
2434358.02572603905121.5122480322434555.86731283905161.931200169
2434831.32610478905218.207314345
Node Last Edited Time=Jun/27/2019 10:54:45
#Sta/Elev= 96 
       0     276  10.788 276.598  17.915 277.104  18.084 277.112   18.34 277.114
  18.422 277.104  18.638 277.157  18.851 277.159  19.487 277.192  19.583 277.181
  109.43 267.401  123.33 266.392  123.92 266.419 126.283 266.423 127.221  266.44
 129.893 266.416 131.485 266.437 133.613 266.525 137.027 266.509 137.125  266.51
 137.161  266.51  140.77  266.55 143.646 266.544 144.802 266.545  147.84 266.554
 149.649 266.539 158.572 266.568 158.779 266.578 158.909 266.569 161.903 266.617
 163.254 266.632 166.687 266.632 169.429 266.615 170.395 266.593 173.121 266.561
 175.501 266.603 176.303  266.61 176.578 266.626 180.356 266.662 182.827 266.604
 183.361  266.61  186.07 266.559 187.067 266.562 188.829 266.631 191.059 266.572
 192.857 266.572 194.466  266.54 195.762 266.565  198.16  266.61 201.396 266.696
 201.928 266.705 201.983 266.706 202.275   266.7 204.822  266.71 205.552 266.708
  205.75 266.702 208.969 266.644 210.075 266.651 212.443 266.643 214.437 266.612
 215.877  266.56 221.458 266.546 222.678 266.544 222.911 266.545 225.921 266.579
 226.737  266.58 229.108 266.566 230.552 266.527 232.323  266.51 234.368 266.574
 235.516 266.628 238.201 266.562 238.745 266.544 240.568 266.539 242.117 266.554
 244.645 266.535 245.286 266.552 245.607  266.54 246.133 266.567 248.515 266.623
 250.202  266.61 251.804 266.622 254.269 266.617 255.059  266.61 255.587 266.604
 258.504 266.619 260.215 266.574 273.542 272.829 280.781 275.948 352.818  278.76
 360.191 278.928 431.191 282.227 441.895 282.394  444.86 282.446 480.954 283.891
 483.077     284
#Mann= 3 , 0 , 0 
       0     .03       0       0     .03       0 483.077     .03       0
Bank Sta=0,483.077
XS Rating Curve= 0 ,0
XS HTab Starting El and Incr=266.542,0.3, 58 
XS HTab Horizontal Distribution= 5 , 5 , 5 
Exp/Cntr=0.3,0.1

Type RM Length L Ch R = 1 ,545.67  ,369.42,369.42,369.42
XS GIS Cut Line=3
2434400.65938326904929.6878669762434597.87759192904955.177092851
 2434825.2644813904984.565432922
Node Last Edited Time=Jun/27/2019 10:54:45
#Sta/Elev= 62 
       0     288  26.573 288.392  30.971 288.299  35.891 288.352  37.736 288.393
  40.295 288.298  41.493   288.3  43.902 288.348  44.903 288.337  46.053 288.391
  47.191 288.407  47.616 288.424  56.228 288.194  88.589   283.7  91.742 283.479
  96.459 282.604 106.826  281.03 107.761 280.904  124.87 276.168 127.638 275.774
 130.427  275.46 133.194 275.203 135.895 274.846 136.996 274.654 139.834 273.914
 150.264 272.258 152.385 271.777 159.618 270.202 162.347 269.423 170.305 266.696
 170.488 266.719 171.349 266.672 173.192  266.69 174.838  266.74 182.483  266.74
 183.532 266.749 184.649  266.75 189.132 266.751 193.583 266.672 193.675 266.672
 197.032 266.749 198.859  266.76 200.605  266.77 202.243 266.738 206.386 266.707
 207.645 266.681 210.388 266.589 211.298 266.573 211.648  266.58 214.204  266.67
 215.842 266.697  221.94 266.725 230.053 271.241 239.057 273.579 250.191 276.179
 253.013 276.927 257.514 277.763 278.748 281.722 355.354 280.983 370.295 281.788
 421.173  285.51 428.137     286
#Mann= 3 , 0 , 0 
       0     .03       0       0     .03       0 428.137     .03       0
Bank Sta=0,428.137
XS Rating Curve= 0 ,0
XS HTab Starting El and Incr=266.723,0.3, 72 
XS HTab Horizontal Distribution= 5 , 5 , 5 
Exp/Cntr=0.3,0.1

Type RM Length L Ch R = 1 ,176.25  ,,,
XS GIS Cut Line=3
2434780.33693973904528.8674004222434833.21160666 904703.03306571
2434899.65583183904921.895960769
Node Last Edited Time=Jun/27/2019 10:54:45
#Sta/Elev= 56 
       0  274.84  11.005 274.621  22.767 274.488  30.777 274.428  55.187 274.847
  71.939 276.482  78.527 276.621  81.375 276.713  91.373 277.742  92.888 277.793
 133.655 270.599 163.374  267.06 165.156 267.008 167.657 267.033  169.27  267.03
 174.847 267.055 175.343 267.043 175.948 267.012 177.974 266.985 179.036 267.078
 182.015 267.044 182.407 267.039 182.667 267.036  183.11 267.043 185.697 267.094
 188.887  267.16 188.932  267.16 189.022 267.158 196.013 266.995 197.894  266.99
 208.372 267.138 210.171 267.236 212.626 267.201 216.069 280.404 217.529 280.224
 223.848 268.878 224.747 267.056 227.684 267.079 230.022 267.099 230.419 267.087
 230.679 267.086  230.89 267.086 238.709 272.636  266.35 292.168 277.702 292.286
 295.927 279.499 326.197 289.477  332.05 289.138 383.133 304.973 384.656 305.432
  392.41 307.483 401.347 288.647 408.697 288.939 409.224 289.028 410.578 288.956
 410.741 288.953
#Mann= 3 , 0 , 0 
       0     .03       0       0     .03       0 410.741     .03       0
Bank Sta=0,410.741
XS Rating Curve= 0 ,0
XS HTab Starting El and Incr=267.135,0.3, 100 
XS HTab Horizontal Distribution= 5 , 5 , 5 
Exp/Cntr=0.3,0.1

LCMann Time=Dec/30/1899 00:00:00
LCMann Region Time=Dec/30/1899 00:00:00
LCMann Table=0
Chan Stop Cuts=-1 



Use User Specified Reach Order=0
GIS Units=Meters
GIS DTM Type=
GIS DTM=
GIS Stream Layer=
GIS Cross Section Layer=
GIS Map Projection=
GIS Projection Zone=
GIS Datum=
GIS Vertical Datum=
GIS Data Extents=,,,

GIS Ratio Cuts To Invert=-1
GIS Limit At Bridges=0
Composite Channel Slope=5
