Geom Title=Site 50 Geometry Data
Program Version=5.07
Viewing Rectangle= 730326.293457486 , 731686.949767748 , 4385155.68443929 , 4384493.21520357 

River Reach=cacapon river   ,RiverCL         
Reach XY= 26 
       730492.13      4384499.71       730457.52      4384552.06
       730433.81      4384598.18        730409.8      4384664.87
       730400.41      4384718.93       730400.41      4384776.09
       730400.41      4384810.68       730424.76      4384839.66
       730473.41      4384863.35       730529.86       4384875.5
       730576.71      4384885.59       730646.91      4384894.28
        730699.3      4384894.28       730752.01      4384879.01
       730816.57      4384852.21       730907.14      4384837.82
       730976.73      4384837.82       731095.76      4384823.71
       731222.87      4384823.71       731253.33      4384831.45
        731290.9      4384864.02       731333.74      4384901.16
       731382.72      4384934.58       731443.54      4384968.86
       731515.27      4384998.47       731673.61      4385071.05
Rch Text X Y=731378.24,4384928.215
Reverse River Text= 0 

Type RM Length L Ch R = 1 ,1618.15 ,124.15,124.15,124.15
XS GIS Cut Line=3
     730533.6975   4384626.16875730446.6593574484384573.19007409
       730372.024384527.75833333
Node Last Edited Time=Jan/16/2021 16:55:02
#Sta/Elev= 500 
       0     150    .159 149.999    .716 150.079    .937 150.026   1.126 150.037
   1.678 150.036   1.691 150.056   1.983 149.945   2.271 149.918   2.548 149.967
   3.179 150.066   3.348 150.047   3.595 149.983    3.92 149.997    4.13 149.989
   4.669   149.9   5.293 149.926   5.435  149.96   5.857 149.948   6.178 149.958
     6.3 149.932   6.503 149.934   7.168 149.925   7.409 149.953   8.107 150.045
   8.348 150.032   8.661 150.037   9.244  150.06   9.353 150.088    9.55 150.018
  10.412 149.923  10.469  149.91  10.993 149.751   11.67  149.67  11.762 149.647
  11.795 149.599  12.022 149.501  12.371 149.574  12.584 149.587   13.39 149.596
  13.561 149.587  13.656 149.557  13.886  149.45  14.291 149.559  14.758 149.512
  15.062 149.495  15.404 149.496  15.509 149.644  15.581 149.684  16.008 149.594
  16.392 149.599  16.668 149.626   16.82 149.597  17.531 149.648  17.683 149.633
  17.923 149.646  18.273 149.636  18.449 149.585  19.009 149.596  19.446 149.561
   19.59 149.589  19.841 149.547  20.421 149.526  20.479 149.564  20.992 149.461
  21.078 149.454  21.416 149.492  21.432 149.505  21.766 149.462   22.05 149.457
  22.237 149.437  22.887 149.422  23.328 149.405  23.833  149.44  23.964 149.363
  24.044   149.4  24.354 149.355  24.437 149.335  24.831 149.281  24.949 149.301
  25.356 149.336  25.817 149.335  26.369 149.194  26.868 149.184  27.063 149.166
  27.522  149.09  27.603 149.136  27.858  149.13  28.147 149.039  28.368 149.009
  28.817 148.905  29.087 148.854  29.391  148.84  29.635 148.812  29.802 148.778
  30.209 148.657  30.366 148.647  30.965 148.496  31.177 148.455  31.631 148.406
   31.87 148.278  32.206 148.239  32.647 148.098   32.87 148.016  33.213     148
  33.533 147.953  33.658 147.911  33.934 147.745  34.002 147.807  34.301 147.734
  34.618  147.67  34.645 147.675    35.3  147.49  35.781  147.39  36.128  147.33
  36.817 147.125  37.224 147.166  37.422 147.145  37.714 147.044  38.195 146.973
  38.626 146.901   38.86 146.817  39.624 146.764  39.894 146.728  40.005 146.694
  40.162 146.684  40.469 146.597  40.715 146.558  41.423 146.339  41.647  146.36
  41.974 146.244    42.3  146.26   42.66  146.18  42.707 146.196  42.937 146.088
  43.599 145.993  43.853 146.019  43.921 146.048  44.356 145.976  44.541 146.013
  44.834 145.977  45.206  145.84  45.314  145.85  45.859 145.795  46.058 145.732
  46.361 145.692  46.475 145.732  46.781 145.673  47.561  145.62   48.13 145.646
  48.428 145.552  48.534 145.545  49.039 145.569   49.22 145.539  49.856  145.57
  50.392 145.655  50.659 145.565  50.744 145.524  50.809 145.525  51.159 145.627
  51.237 145.616  51.537 145.474  51.805 145.415  52.293 145.226  52.584 145.107
  52.955 144.877  52.994 144.865   53.17 144.956  53.609 144.825  53.913 144.718
  53.968 144.709  54.898  144.62  55.218 144.506  55.298 144.502  56.086 144.401
  56.265 144.366  56.427 144.372  56.759  144.32  57.322 144.182  57.422 144.162
  57.779 144.122  58.159 144.022  58.322 144.007  58.786 143.915  58.872 143.915
  59.644  143.86  60.014 143.865  60.194 143.897  60.727 143.742  61.085 143.652
  61.467 143.653  61.656 143.692  61.762   143.7  61.924 143.668   62.31 143.536
  62.462 143.496  62.786 143.466  63.109 143.459  63.549 143.489  63.849 143.399
  64.489  143.41  65.166 143.213  65.208 143.212  65.276 143.325  65.446 143.324
  65.843 143.294   66.12 143.261  66.448 143.317  66.686 143.339  66.887 143.281
  67.125  143.31  67.538 143.305  67.982 143.249  68.137 143.268  68.467 143.211
  68.724 143.261  68.953   143.2  69.086   143.3   69.47 143.181  69.975 143.154
  70.172 143.157  70.368 143.137  71.139 142.975  71.205 142.921   71.36 142.879
  71.638 142.833  72.111 142.779  72.436  142.72  72.536 142.689    72.8 142.655
    73.3 142.542  73.436 142.547  73.806 142.466  74.358  142.47  74.466 142.435
  74.911 142.233  75.148 142.108  75.253 142.081  75.475 142.083  75.632     142
   75.78 141.997  76.302 141.904  76.844 141.745  77.077  141.54  77.381 141.489
  77.437 141.458  77.926 141.409  78.022  141.42  78.825 141.448  79.325 141.445
  79.566 141.481  80.258 141.416  80.451 141.394  81.143 141.438  82.087 141.448
  82.654 141.428  83.188 141.506  83.518 141.545  84.031 141.443  84.205 141.427
  84.546 141.436  85.105  141.49  85.498 141.447  85.751 141.429  86.566  141.46
  87.161 141.414  87.207 141.403  87.405 141.417  88.006 141.436  88.599 141.503
  89.014  141.52  89.315 141.502  89.886 141.381  90.672 141.345  90.919 141.384
  91.833  141.58  91.943 141.592  92.344 141.493  92.869 141.473  93.331 141.504
  93.926 141.395  94.031 141.411  94.289 141.385  94.704 141.392  94.847 141.418
  95.293 141.518  95.939 141.586  96.104 141.576  96.512 141.538  96.734 141.508
  96.798 141.512  97.452 141.499  97.946 141.433  98.168 141.428  98.739 141.438
  99.166 141.475  99.362 141.509  99.755  141.42 100.101 141.372  100.38 141.391
 100.706 141.458 101.406 141.458 102.123 141.469  102.22 141.491 102.954 141.514
 103.736 141.405 104.454 141.501 104.696 141.538 105.208 141.569 105.315 141.597
 106.049  141.41 106.772 141.466 107.058 141.476 107.613 141.404 107.954 141.441
 108.349 141.503 108.727 141.492 109.572 141.523 110.112 141.461 110.525 141.403
 111.042 141.383 111.618 141.489 111.825 141.468 112.349 141.466 112.971 141.443
 113.558 141.513 113.756 141.443 114.051 141.521 115.272   141.5 115.477 141.492
 116.259  141.51 116.919 141.474 117.124 141.442 117.585 141.469 118.196  141.48
 118.845 141.454  118.94 141.434  119.77 141.492 120.345 141.589 120.703 141.824
 121.279 142.009  121.38 141.952 121.671 141.991 121.713 141.925 122.103 141.976
 122.526 142.049 122.837 142.115 123.059 142.143 123.636 142.282 124.066 142.357
 124.242 142.396 124.439 142.454 124.482 142.444 124.835 142.559 125.039 142.688
 125.191 142.734 125.233 142.716 125.683 142.812 126.964 143.072 127.262  143.15
 132.273 143.835 133.954 144.084 134.845   144.2 136.066 144.288 136.652 144.375
 139.467 144.896 139.882 144.866 140.897 145.421 142.201 146.104 142.453 146.067
 142.992 146.128 143.189 146.197 143.516 146.298 143.554 146.349 143.711 146.352
 143.824 146.313 144.149 146.297 144.781 146.345 144.953 146.328 145.175 146.218
 145.524 146.204 145.754 146.232 146.055 146.102 146.268 146.122 146.405 145.984
 146.457 145.996 146.792 146.004 146.964 145.946 147.083  145.94 147.535 145.982
   147.9 145.884 148.246 145.858 148.605 145.854 148.864 145.863 149.562 145.807
 149.678 145.765 149.857 145.744 150.169 145.823 150.408 145.806 150.603 145.778
 150.979 145.787 151.252 145.805 151.916 145.794 152.023 145.818 152.077 145.778
 152.529 145.742 153.201  145.75 153.798  145.83 153.917 145.819 153.983 145.847
 154.113 145.771 154.234 145.759 154.734 145.821 155.018 145.818 155.326 145.805
 155.531  145.75 155.985 145.812 156.361 145.794 156.564 145.708 156.595  145.76
 156.807 145.751 157.284 145.762 157.554 145.782 157.634  145.77 157.922 145.812
 158.231 145.761 158.308 145.778 158.665 145.798 158.896 145.754 159.326 145.802
 160.201 145.847 160.289 145.822 160.932   145.9 161.024  145.87 161.498 145.857
 161.879 145.893 163.068  145.94 163.644 145.972 163.994 145.967 164.646 146.008
 167.169 146.079 167.439 146.072 169.056 146.192 169.136 146.203  169.35 146.204
 171.804 146.151 171.864 146.141 172.199 146.173 172.694 146.234  173.21 146.149
 173.304 146.085 173.676  146.12 173.791 146.112 174.205  145.99 174.647 146.002
 174.806 145.994 175.741 145.966 176.117 145.894 176.226 145.856 176.556 145.902
 176.841 145.851  177.09 145.821 177.238 145.867 177.394  145.87 177.575   145.8
 178.326   145.8  178.43 145.895 178.538 145.888 179.499 145.781 179.719  145.77
 180.153 145.768 180.213  145.76 180.396 145.778 180.467 145.805  180.88 145.803
  181.25 145.814 181.641 145.847  182.39 145.858 182.684  145.87 183.188 145.875
  183.39 145.723 183.643 145.819 184.428 145.798 184.504 145.799  184.95 145.867
  185.14 145.863 185.661 145.818 185.841 145.839 186.002 145.795 186.589 145.791
 186.758 145.862 186.946 145.854 187.255  145.92 187.424 145.876 187.871  145.99
 187.978 145.992 188.063 146.026 188.379 145.974 188.738 146.017 189.273     146
#Mann= 3 , 0 , 0 
       0     .01       0       0     .01       0 189.273     .01       0
Bank Sta=0,189.273
XS Rating Curve= 0 ,0
XS HTab Starting El and Incr=141.495,0.3, 29 
XS HTab Horizontal Distribution= 5 , 5 , 5 
Exp/Cntr=0.3,0.1

Type RM Length L Ch R = 1 ,1494    ,181.86,181.86,181.86
XS GIS Cut Line=3
730486.9558134894384707.23951665730405.4930015314384689.67017623
730339.6332252344384675.46599149
Node Last Edited Time=Jan/16/2021 20:46:59
#Sta/Elev= 500 
       0 144.953    .213 144.962     .32 144.949    .697 144.921    .885 144.895
    .989 144.889   1.645 144.919   2.023  144.88    2.09 144.887   2.617 144.835
   2.682 144.814   2.718 144.921   2.769 144.926   2.993 144.933   3.551 144.898
    3.75 144.911   3.921 144.853   4.217 144.837   4.367 144.808   4.421 144.796
   4.605 144.811   4.996 144.826   5.068 144.837   5.416 144.831    5.66 144.839
   5.832 144.818   6.217 144.779   6.433 144.749   6.977  144.79   7.324 144.783
   7.489 144.794   7.816 144.723   7.907   144.7   7.921 144.705   7.993 144.701
   8.774  144.83   8.817 144.826   9.056 144.739   9.152 144.791   9.325 144.738
   9.671 144.671   9.718 144.666   9.981 144.704  10.139 144.738   10.45 144.779
  11.105 144.727  11.235 144.732  11.354  144.71  11.432  144.71  11.466 144.724
  11.621 144.725  11.752   144.7  12.236 144.746  12.309 144.741  12.616 144.636
  13.079 144.717  13.399 144.716  13.722 144.617  13.829 144.622  14.218 144.569
  14.347 144.564  14.585 144.612  14.641  144.63  14.812 144.622  15.145 144.578
   15.23  144.65  15.348  144.67  15.556 144.642  15.699 144.658    16.2 144.668
  16.405 144.676  16.431 144.672   16.46 144.691  16.466 144.676  16.956 144.723
  17.302 144.717  17.548 144.704  17.864 144.774  18.408 144.697  18.659 144.689
  18.992 144.691  19.331 144.676  19.469  144.72  19.848 144.678  19.868  144.67
  19.881 144.697  20.236 144.766  20.345  144.76   20.43 144.729  20.839 144.721
  21.092 144.789  21.411 144.762  21.447 144.787  21.507  144.77  22.103 144.806
  22.253 144.814  22.814 144.836   22.97 144.818  23.112 144.818  23.714  144.78
  23.858 144.759  23.966 144.767  24.074 144.792   24.17 144.894  24.356 144.831
  24.579 144.823  24.807 144.757  25.122 144.701  25.226 144.741  25.634 144.788
  25.835 144.709   25.99 144.705  26.205 144.725  26.723 144.754  26.783 144.745
  27.123 144.746  27.314 144.749  27.689 144.756  27.771 144.745   28.28 144.766
  28.744 144.819  28.781 144.815  29.405 144.613  29.442 144.611   29.63 144.642
  30.187 144.705  30.211 144.735  30.832 144.556  30.882 144.542  30.954 144.554
   31.09 144.611  31.422 144.604  31.582 144.564  31.858 144.586  32.226 144.597
  32.382 144.589    32.6 144.587  32.968  144.49  33.013 144.469  33.075 144.448
  33.306 144.481  33.622 144.522  33.656 144.516  33.704 144.524  33.795 144.499
  34.171 144.429  34.402 144.353  34.567 144.372  34.882 144.355  34.974 144.286
  35.242 144.187  35.335 144.184  35.554 144.128  35.824 144.134   36.02 144.131
  36.158 144.078    36.3 144.085  36.663 144.075  36.711 144.078  36.789 144.089
  37.368  144.13  37.441 144.139  37.764 144.048  38.028 143.952  38.281 143.993
  38.597 144.034  39.017  143.94  39.266 143.862  39.466 143.944  39.771 143.914
   39.89 143.876  40.426  143.82  40.547  143.89  41.016  143.78  41.146 143.752
  41.214 143.744  41.445 143.728  41.589 143.727  41.742 143.729  41.878 143.802
  42.043 143.798  42.286 143.743  42.427 143.741  42.852 143.857  42.874 143.852
  43.132 143.747  43.179 143.747  43.947 143.546  44.085 143.566  44.137 143.523
  44.684 143.585  44.806 143.484  44.983 143.571   45.71 143.538  45.847  143.52
  45.909 143.532  46.563 143.641  46.575  143.64  47.046  143.64  47.323 143.659
  47.504 143.679  47.823   143.6  47.948  143.61  48.209 143.654  48.564 143.624
  48.876  143.57  49.374 143.594   49.81  143.55  50.189 143.492   50.45 143.419
  50.525 143.358   50.79 143.355  51.489 143.354  51.545 143.331  51.963  143.31
  52.408 143.376  52.489 143.347  52.614 143.347  52.719 143.269  52.995 143.306
  53.472 143.266  53.601 143.344  53.921 143.304  54.237 143.258  54.828 143.234
  54.891  143.25  55.019 143.255  55.319 143.265   55.63 143.231  55.642 143.222
  55.671 143.229  55.928  143.22  56.488 143.216  56.532 143.236  56.645 143.246
  57.011 143.355  57.217 143.284  57.446 143.265  57.807 143.218  58.059 143.216
  58.335 143.237  58.568  143.29  58.599 143.266  58.829 143.182  59.188 143.091
  59.509 143.053  60.238 142.971  60.253 142.975  60.392 142.883  60.688 142.907
  60.809 142.916  61.622 142.661  61.717 142.604  61.809 142.637    61.9 142.609
  62.642 142.431  63.086 142.379  63.424 142.285  64.111 142.001  64.296 141.924
  64.524 141.896  64.735 141.905  65.149  141.84  65.503 141.912  65.682 141.888
  65.872 141.807  66.202 141.859  66.659 141.638  67.006 141.751  67.616 141.528
  67.664 141.484  67.771 141.472  68.347 141.456  68.367 141.551    69.3 141.921
  69.442 141.918  70.339 141.894  71.274   141.9  71.308   141.9  72.217 141.931
  73.032 141.941  73.149 141.939  73.312 141.906  74.208 141.799  74.851 141.849
  75.226 141.926  75.371 141.911  76.844 141.939  77.048 141.949  77.629  141.91
  78.144 141.865  78.473 141.879  79.528   141.9   79.97 141.882  81.151 141.854
  81.369 141.888  82.066 141.955  82.155 141.962  82.856 141.974  83.336 141.907
  83.611 141.867   84.92 141.942   85.21 141.955  85.635 141.846  86.196 141.781
  87.313 141.877  87.351 141.881  88.217 141.921  88.662 141.932  89.477 141.928
  90.199 141.922  90.386 141.918  90.779 141.914  91.137 141.876  91.474 141.925
   92.65 141.924  92.997 141.916  93.491  141.91  93.999  141.91  94.356 141.853
   94.99 141.774  95.211 141.775  95.747 141.795  96.519 141.889  96.884 141.925
   97.23 141.958  97.917  141.88  98.597 141.899  98.853 141.886  99.667 141.904
 100.047 141.939  100.69 142.036 101.328 141.914 101.637 141.863 102.166 141.887
 102.817 141.932 102.961 141.929 104.243 141.846 104.458 141.845 104.754 141.868
 105.541  141.97 106.641 141.976 106.849 141.965 107.748 141.793 108.165 141.725
 108.209 141.717  108.27   141.7 109.112 141.737 109.644 141.805 109.792 141.888
 109.851   141.9 110.312 142.018  110.68 142.157 110.831 142.228 111.528 142.697
 111.777 142.804 111.859 142.844 111.872 142.884 111.884 142.868 111.902 142.887
 111.932 142.893 112.474 143.192 113.033 143.461 113.513 143.675 113.598 143.736
 113.679 143.755 114.182 143.888 114.203 143.892 114.555 144.001 114.787 144.108
  115.19 144.203  115.53 144.264 115.787 144.314 116.391 144.445 116.435 144.442
 116.513 144.486 117.078 144.763 117.363 144.812 117.602  145.02 118.195 145.144
 118.277  145.16 118.345 145.193 118.981 145.448 119.207 145.667 119.272   145.7
 119.609 145.661  119.66 145.632 119.886 145.652 120.196 145.668 120.274 145.683
 120.936 145.835 121.067 145.863 121.109  145.96 121.863 145.968 121.966  145.97
 122.663 146.049 122.858 146.067 122.884 146.072 123.223 146.063 123.431  146.05
 123.611 146.044 123.793 146.043 124.138 146.005 124.429  146.03 124.456  145.99
 125.095 146.035 125.268  146.05 125.542 146.068 125.915 146.129 126.089 146.163
 127.068 146.172 127.107 146.173 127.508 146.196 127.636 146.218 127.824 146.226
  128.22 146.164 128.381 146.171  128.41 146.166 128.502 146.164 128.706 146.147
 129.192 146.197 129.705 146.181 129.905 146.226 130.245 146.199 130.293 146.198
 130.969 146.127 131.108 146.088 131.293 146.104 131.851 146.102 132.255 146.002
  132.28 145.999 133.119 145.934 133.547 145.985 133.826 145.928 133.927 145.946
 133.995 145.937 134.315 145.973 134.443 145.993 134.459 145.987 134.534 145.972
 135.007 145.854 135.403 145.912 135.697 145.927 135.808  145.94 136.107 145.933
  136.21 145.918  136.65 145.886 137.279 145.912 137.406 145.909 137.456 145.924
 137.895 145.907 138.107 145.873  138.49 145.854 138.706 145.866 138.903 145.852
 139.297 145.937 139.639 145.851 139.829 145.855 140.145 145.873 140.358 145.903
 140.484 145.904 140.907 145.955 141.127 145.933 141.352 145.954 141.621 145.969
 142.187  145.98 142.301 145.968 142.531 145.987 143.075 146.096  143.31 146.051
 143.531 146.021 144.468 146.022 144.601 146.053 144.687 146.151 144.726 146.163
 145.191 146.243 145.262 146.264 146.137 146.108 146.186 146.102 146.216  146.12
 146.533 146.272 146.625 146.268 147.039 146.236 147.091 146.223 147.397  146.22
  148.15 146.215 148.241 146.229 148.273 146.231  148.35 146.221  148.47  146.23
 148.662 146.214 148.909 146.208 149.001 146.185 149.172  146.21 149.778 146.216
 149.846 146.276 150.045 146.271 150.248 146.312 150.609 146.344  150.71  146.34
#Mann= 3 , 0 , 0 
       0     .03       0       0     .03       0  150.71     .03       0
Bank Sta=0,150.71
XS Rating Curve= 0 ,0
XS HTab Starting El and Incr=141.606,0.24, 20 
XS HTab Horizontal Distribution= 5 , 5 , 5 
Exp/Cntr=0.3,0.1

Type RM Length L Ch R = 1 ,1312.14 ,207.92,207.92,207.92
XS GIS Cut Line=3
730490.7854466254384748.80778582730445.0343587974384849.53263254
    730418.81125     4384907.265
Node Last Edited Time=Jan/16/2021 21:18:50
#Sta/Elev= 500 
       0 144.998    .203 144.982   1.282 144.849   2.214 144.891   2.458 144.865
   2.817 144.879   2.877  144.89   3.715 144.799   3.751 144.792   3.771 144.777
   3.781 144.791   4.468 144.668   4.726  144.65   4.953 144.667   5.176 144.571
   5.272 144.542   5.313 144.548   5.419 144.593   5.716 144.672   5.738 144.681
   5.835  144.68   6.474  144.53   6.538 144.527   7.061 144.489   7.245 144.493
   7.517 144.465   7.982 144.499   8.349 144.396   8.582 144.362   8.746 144.327
   9.119 144.411   9.558 144.424   9.945 144.388  10.292 144.236  10.468 144.277
  10.562 144.312  10.673 144.315  10.739 144.352  10.964 144.338   11.16 144.391
  11.355  144.39  11.578 144.409  11.657 144.448   11.87 144.503  12.357 144.541
   12.45 144.542  13.176 144.579  13.459 144.566  13.489 144.556   14.55 144.605
  15.144  144.66  15.529 144.652  15.574  144.65  16.155 144.588  16.329 144.637
  16.578 144.575  16.694  144.64  16.874 144.636  17.115 144.663  17.829 144.678
  18.088 144.657  18.901 144.503  18.945 144.508  19.604 144.643  20.401 144.555
  20.446 144.552  20.507 144.563  21.076 144.544  21.094 144.534  21.121 144.539
  21.517 144.663  21.804 144.718   22.29  144.69  22.797 144.654  23.174 144.615
  23.424 144.623  23.791 144.598  24.572 144.557  24.702 144.593   24.75 144.555
  24.893 144.587  25.024 144.586  25.985  144.68    26.8 144.665  26.847 144.667
  26.987 144.693  27.185 144.774   27.34 144.694  27.864  144.74  27.937 144.783
   28.83 144.735  28.897  144.75  29.012 144.752  29.166 144.771  29.967 144.823
  30.762 144.868  31.001 144.887   31.09  144.87  32.073 144.908  32.217 145.068
  32.221  145.07  32.651 144.977  33.024 144.956   33.22 145.016  33.599 144.941
  34.194 144.843  34.344 144.862  34.623 144.865  34.894 144.972  35.174 144.908
  35.705 144.862  35.888  144.86  36.164 144.866  36.289 144.885  36.696 144.903
  36.974 144.963  37.553 144.926  37.823 144.941  38.016  144.87  38.124 144.853
  38.175 144.836  38.373   144.9  38.772 144.834  39.093  144.86  39.219 144.828
  39.974 144.672   40.07 144.667  40.682 144.603  40.893 144.582  41.255 144.638
   41.33 144.634  41.899 144.583  42.012 144.541  42.059 144.559  42.245 144.546
  42.583 144.531  42.689 144.529    42.9  144.52  43.502 144.538  43.563 144.557
  43.574 144.531  43.834 144.399  44.023 144.379  44.378 144.385  44.823 144.397
  45.115 144.334  45.284 144.325  45.527 144.343  45.965 144.289  46.195 144.309
  46.262 144.271  46.856  144.28  47.089 144.236  47.676 144.211  47.794 144.213
  48.026  144.26  48.178 144.164   48.68  144.02  48.997  143.96  49.046 143.955
  49.694 144.025  50.087 143.999  50.359 144.024  50.869 143.923   51.48 143.894
  51.706 143.873   52.37 143.795  52.662 143.756  52.823 143.663  53.458 143.647
  53.762 143.657  53.994 143.696  54.191 143.677  54.744 143.638  54.798 143.621
  54.863 143.582  55.197 143.622  55.697 143.516  56.033  143.48  56.322 143.511
  56.345  143.51  56.452 143.467  56.682 143.423  57.077 143.316  57.105 143.316
  57.251  143.27  57.915 143.226  58.076 143.213  58.101 143.222  58.904 143.192
  59.069 143.191  59.478 143.202  59.981  143.24  60.092 143.236  60.756 143.236
  60.889 143.204  61.194 143.078  61.207 143.078   61.41 143.128   61.44 143.125
  62.117 142.974   62.35  143.05  62.696 143.096  63.122 143.042  63.144 143.034
  63.284 142.941  63.331 142.943  63.678 142.909  64.172 142.882  64.465 142.832
  64.996  142.72  65.139 142.654  65.273 142.679  65.451 142.671  65.649 142.667
  65.876 142.689  66.378 142.582  66.805 142.571  67.149 142.462  67.604 142.447
   67.87 142.389  68.119 142.378  68.589  142.36  68.741 142.342  68.783 142.266
  69.028 142.292  69.209   142.3  69.713 142.279  69.854 142.296  70.239 142.355
  70.716 142.276  71.062 142.291  71.283 142.305  71.411 142.266  71.763 142.278
  72.325 142.502   72.38 142.521  72.432 142.518  72.746 142.427  73.031 142.478
  73.608 142.429  73.772 142.428  73.938 142.412  74.012 142.384  74.106  142.39
  74.699 142.545  74.846 142.509  75.182 142.606  75.623 142.935  75.664  142.95
  76.424 143.124  76.836  143.03  77.022 143.094  77.507 143.103  78.493 143.149
  78.706 143.143  78.883 143.026  78.961  143.01  79.894  143.06  79.905  143.06
  80.623 143.133   80.89 143.013  81.026 143.001  81.307 143.075   81.88 142.973
  82.301 142.833  82.333 142.911  82.391  142.92   82.57 142.862   83.08 142.691
  83.177 142.688  83.595 142.624  83.707 142.644  84.222 142.684  85.114 142.698
  85.463 142.694  85.614 142.687  85.656 142.711  86.142 142.801  86.942 142.847
  87.162 142.872  87.396 142.848  88.043 142.721  88.747 142.667  88.833 142.676
   88.99 142.646  89.885 142.586  90.063 142.626  90.103 142.624  90.232 142.608
  90.554 142.555  90.846 142.644  90.956 142.654  90.992 142.654  91.359 142.561
   91.59  142.51   92.05 142.431  92.113 142.422  92.948 142.288  93.023 142.294
  93.135 142.258  93.865 142.189  94.035 142.194  94.215 142.233  94.396 142.221
  95.068 142.205  95.376  142.17  95.468 142.155  95.747  142.15  95.954 142.153
  96.007 142.141   96.63 142.114   96.91 142.074  97.185 141.947  97.472 141.851
  97.709 141.703  97.767  141.68  98.158 141.574  98.376 141.532  98.862   141.7
  99.014 141.828  99.149 141.812 100.616  141.77 101.548  141.78 103.252 141.786
  105.31 141.794 105.883 141.781 107.622 141.732 107.777 141.733 108.445 141.763
 109.606 141.825 109.912 141.815 110.628 141.765 110.665 141.763 111.032 141.727
 111.209 141.747 111.843 141.849 112.666 141.849 113.789 141.806 114.293 141.796
 115.508 141.712 116.553 141.839 116.637 141.851 117.515 141.814 117.777 141.795
 118.475 141.774 118.887 141.809 119.351 141.856     120 141.866 120.327 141.867
  121.31 141.816 121.509  141.81 122.714 141.841 123.228 141.868 123.404 141.861
 123.799 141.863 124.481 141.861 124.859 141.815 125.676 141.804 125.992 141.867
 126.525 141.844  127.91 141.565 128.289 141.496 128.957 141.364  129.05 141.355
 129.181 141.704 129.521 141.718 130.181 141.584 130.269 141.603 130.459 141.599
 130.662 141.629 131.254 141.635 131.353  141.68 131.453 141.714 131.982 141.646
 132.142 141.635 132.158 141.637  132.55 141.872 132.651 141.878  132.95 141.887
 133.372 141.952 133.607 141.912 133.634 141.898 133.895 142.002 134.261 142.067
 134.669 142.055  134.74 142.067 134.758 142.076 134.943 142.116 135.536 142.205
  135.68 142.263 135.811 142.259 136.055 142.255 136.449 142.347 136.544 142.447
 136.972 142.574 137.067 142.581 137.276 142.627 137.419 142.624 137.863 142.723
 138.553 142.849 138.788 142.882 138.871  142.88 138.979  142.93 139.255 142.984
 139.376 143.011 139.422 143.018 139.862 143.156  140.01 143.165 143.766 145.644
 147.219 147.887 147.517 148.065 147.913 148.196 148.075 148.281 148.244  148.26
 148.443 148.246 148.779 148.241 149.281 148.364 149.286 148.359 149.518 148.356
 149.716 148.391 150.083 148.382  150.25 148.421 151.144 148.455 151.272 148.642
 151.414 148.642 151.624 148.573 151.801 148.629 152.176 149.185 152.289 149.257
 152.441 149.457 152.896 149.803 153.354 150.327 153.615 150.686 153.882 150.817
 154.203 150.944 154.247 150.964 154.289     151 154.737 151.434 155.531 152.151
 155.729 152.232  155.87 152.304 156.697 152.652 157.357 153.225 157.374 153.229
 157.503 153.316 158.034  153.65 158.051  153.64 158.273 153.643 158.823  153.87
 159.154 154.081 159.543 154.331 159.882 154.609 160.104 154.725 160.606 155.073
 161.052 155.165 161.149 155.307 161.442 155.772 162.059  156.03 162.293 156.114
 162.315 156.132 162.407 156.178  163.01 156.583 163.224 156.773 163.234 156.706
 163.591 156.953  163.86 157.183 164.161 157.401 164.251 157.435 164.496 157.574
 164.753 157.788 165.242 158.042  165.46 158.218 166.302 159.209 166.434 159.329
 166.548 159.419 166.621 159.452 167.654 159.648 167.681 159.848 167.722 159.872
 167.751 159.744 168.071 160.052 168.708 160.415 168.778  160.42 168.947 160.487
 169.678 160.988 170.024   161.2 170.737 161.824   170.8 161.893 171.173  161.98
 171.221 162.009 171.332 162.142 171.764 162.723 171.773 162.727 172.176  162.71
 172.303 162.789 172.899  163.26 173.288 163.436 173.574 163.568 174.037     164
#Mann= 3 , 0 , 0 
       0      .1       0       0      .1       0 174.037      .1       0
Bank Sta=0,174.037
XS Rating Curve= 0 ,0
XS HTab Starting El and Incr=141.505,0.3, 75 
XS HTab Horizontal Distribution= 5 , 5 , 5 
Exp/Cntr=0.3,0.1

Type RM Length L Ch R = 1 ,1104.22 ,134.39,134.39,134.39
XS GIS Cut Line=3
730660.4092455254384780.31845265730646.8694781154384894.27813635
730635.6159383754384988.99501401
Node Last Edited Time=Jan/16/2021 21:40:07
#Sta/Elev= 500 
       0  146.56     .37 146.551    .462 146.536    .941 146.403   1.455 146.379
   1.547 146.429   1.862 146.396   2.243 146.388   2.772 146.343   2.893 146.279
   3.371 146.226   3.432 146.253   3.534 146.187   3.867 146.165   3.965 146.282
    4.01 146.288   4.327 146.208   4.884 146.211   5.114 146.274   5.381 146.257
   5.915 146.184   6.108 146.134     6.3 146.173   6.436 146.155   6.908  146.04
   7.464 146.127   7.605 146.121   7.699  146.08   8.017  145.89   8.377  145.94
    8.68 145.958   8.847   145.9   9.283 145.854   9.641 145.789   9.791 145.843
  10.003 145.787  10.602 145.773  10.748 145.718  10.982 145.792  11.083 145.786
  11.731 145.646  12.007 145.703  12.299 145.699  12.682 145.674   13.06 145.567
  13.467 145.648  14.035 145.429  14.197 145.476  14.602 145.515  14.922 145.501
   15.11 145.466  15.303 145.408  15.655 145.411  15.982 145.354  16.262 145.408
  17.143 145.442  17.307 145.402  17.631 145.353  17.767 145.303  18.095 145.344
  18.641 145.464  18.955 145.428  19.451 145.391  19.626 145.432  19.772 145.426
  20.165 145.505   20.67 145.521  20.815  145.51  20.994 145.556  21.092  145.55
  21.217 145.629   21.67 145.596  21.858  145.67  22.046  145.67  22.591 145.566
  22.652   145.6  22.761 145.605  23.101 145.682  23.189 145.759  23.798 145.801
  24.573 145.765  25.005 145.852  25.373 145.873  26.093  145.55  26.392 145.463
  26.755 145.395  27.025  145.36  27.554 145.394  27.943 145.301  28.195 145.194
  28.366 145.187  28.587 145.134  28.749 145.181  29.538 144.915   29.67 144.885
  30.057 144.667  30.181 144.693  30.583 144.501   30.67 144.568  30.838 144.757
  30.942 144.755  31.277 144.787   31.61 144.748  31.926 144.693  32.388 144.827
  32.561 144.868   32.68 144.877  33.355 144.723  33.597 144.854  33.845 144.871
  34.451 144.673  34.545 144.665  34.791   144.7  34.812 144.686  34.978 144.846
  35.008 144.856  35.787 144.739  36.156 145.005  36.219 144.988  36.436 144.859
  36.788 144.896  37.368 145.048  37.877 145.007   38.37 145.073   38.56  145.02
  38.649 145.055  39.026 144.905   39.42 144.933  39.595 144.963  39.804 145.056
  40.107 145.044  40.725 144.965  40.807 144.949   41.04 145.068  41.197 145.068
  41.955 144.989  42.301 145.024  42.651  144.94  42.852  144.88  43.155  144.88
  43.621 144.813  44.152 144.758  44.839 144.882  45.225 144.694  45.407 144.704
  45.835 144.776   46.12 144.832  47.181 144.781  47.316 144.816  47.383 144.785
  47.596 144.766  47.745 144.801  47.961 144.826  48.536 144.939  49.036 144.821