Geom Title=Site 380 Geometry Data
Program Version=5.07
Viewing Rectangle= 357292.136905209 , 358252.545773216 , 4348505.57056003 , 4347928.19343703 

River Reach=gwynns falls    ,RiverCL         
Reach XY= 23 
       357336.44      4348499.91       357345.71      4348462.61
       357362.65      4348418.82       357371.87      4348399.61
       357394.83      4348373.69       357418.65      4348348.89
       357441.17      4348326.38       357476.49      4348301.08
       357531.15      4348280.23       357579.22       4348266.9
       357664.46      4348253.13       357694.47      4348243.72
       357722.73      4348234.51       357760.43      4348214.48
       357945.84      4348088.37       357983.68      4348071.32
        358003.5      4348065.04        358029.2      4348049.95
       358051.32      4348030.67       358080.67      4348017.25
       358133.45      4348014.24       358186.62      4348017.38
       358243.13      4348017.38
Rch Text X Y=357563.1125,4348379.2775
Reverse River Text= 0 

Type RM Length L Ch R = 1 ,1048.5  ,104.07,104.07,104.07
XS GIS Cut Line=3
358195.751666667      4348098.14358201.4512824224348017.37924843
      358207.346     4347933.854
Node Last Edited Time=Jun/18/2019 16:04:24
#Sta/Elev= 419 
       0      10    .168  10.025    .765  10.049    .995  10.043   1.023  10.057
   1.536  10.028   1.698  10.026   1.802  10.018   2.235  10.042   2.263  10.049
   2.617  10.024    3.44    9.99   3.444   9.991   3.455   9.995   3.515  10.026
   3.559  10.025   4.336   9.976   4.515   9.961   4.555    9.98   5.233   9.943
   5.259   9.941   5.299   9.942   5.588   9.958   5.778   9.951   6.323   9.959
   6.484   9.928   7.294   9.948   7.301   9.948   7.374   9.955   7.443   9.958
   7.451   9.957   8.384   9.866   8.706   9.872   9.159   9.812   9.391   9.767
   9.466    9.77   9.815   9.784  10.021   9.745  10.317    9.75  10.593   9.735
  10.708   9.711  11.119   9.712  11.219   9.709  11.234   9.704  11.589   9.655
  11.895   9.629  12.252   9.586  12.443    9.61  12.566    9.61  13.018   9.592
  13.302   9.566  13.316   9.575  13.508   9.565   13.56   9.547  13.818   9.492
  17.679   8.276  19.966   7.546  23.212   6.665  24.071   6.422  24.573   6.269
   26.13   5.801  26.253   5.727  26.337   5.711  27.406   5.593  27.669   5.555
  28.321   5.401  28.508   5.358  28.774    5.37  29.208    5.45    29.5   5.411
  30.416   5.333  30.559   5.307  30.866   5.266  31.532   5.259  32.234   5.306
  32.363   5.293  32.669   5.262  32.865   5.261  33.163   5.264  35.223   5.207
  35.831   5.299   35.91   5.309  35.945   5.308  36.974    5.28  38.423   5.355
  38.497   5.336  38.592   5.353  40.751   5.239  42.984   4.425  43.956   3.718
  44.178   3.754  44.736   3.861  45.458   3.893  47.495   3.995  47.872    3.92
  48.528   3.989  49.526   4.198  50.576   4.318  51.136    4.33  51.795   4.454
  52.124    4.48  52.448   4.452  52.828   4.454   53.18   4.557    53.5    4.62
   54.23   4.665  55.317   4.621  56.587   4.524   56.71    4.52  56.823   4.512
  57.295   4.509  57.799   4.388  57.898   4.357  58.294   4.309  58.815   4.323
  59.455    4.28  59.852   4.215   60.28   4.094  60.547    3.99  60.703   3.922
  61.134   3.727   61.62   3.527  61.703   3.485  61.858   3.421  62.308   3.234
  62.537   3.089  63.033   2.874  63.493   2.762   63.74   2.675  64.026   2.645
  64.298   2.625  64.504   2.606  65.084    2.52   65.69   2.482  65.848   2.464
  66.229   2.441  66.302   2.443  66.396   2.446  66.953   2.458  67.128    2.39
  68.386   1.514  68.542   1.456  68.599   1.404  68.668    1.35  69.021   1.334
  69.579   1.343  70.179   1.328  70.587    1.31  70.824   1.352  71.087   1.381
  71.243   1.375  71.842   1.394  72.327   1.347  72.541   1.308  72.684    1.34
  72.809   1.314  73.167    1.31  73.455    1.32  73.834   1.407   73.85   1.409
  74.518   1.344  75.091   1.397  75.186   1.401  75.382   1.403  75.756   1.374
  75.923   1.351  76.614   1.288  76.799   1.309  77.351   1.352  78.683   1.398
  78.729   1.405   78.82   1.407  79.336    1.43  79.839   1.448  79.879   1.449
  79.984   1.437  80.685   1.372  80.962   1.375  81.208   1.378  81.496   1.396
  81.867   1.412  82.847   1.512  82.931   1.514  83.777   1.436  83.913   1.417
  84.695   1.464  84.757   1.472  84.808   1.474  84.911   1.489  85.876   1.521
   86.21   1.622  86.953   1.916  87.851   2.255   88.44   2.339  88.763   2.376
  89.158   2.536  89.505   2.708  90.043   3.204  90.268   3.433  90.597   3.685
  90.862   3.865  91.037   4.121   91.55   4.943  91.819   5.077  92.238   4.896
  92.496   5.262  92.876   5.293  93.343   5.403  93.637   5.377  94.178   5.448
  95.372   5.554  95.451   5.564   95.69   5.569   96.36   5.521  96.922   5.474
  97.019   5.463  97.086   5.458  97.157   5.466  97.964   5.472  98.601   5.441
   98.73   5.433  98.958   5.389  99.175   5.358  99.306   5.363  99.766   5.383
 100.302   5.384 100.533   5.396 100.869   5.426 101.332   5.426 101.674    5.44
 102.553    5.38 102.557    5.38  102.84    5.39 103.874   5.397 104.188   5.396
 104.226   5.397 104.328   5.405 104.626   5.412 104.737   5.401  105.41   5.328
  106.26     5.3 106.264     5.3 106.942   5.389 107.132     5.4 107.338   5.397
  107.98   5.355 108.035   5.348 108.128   5.357 109.115   5.387 109.428   5.387
 110.102   5.283 110.155   5.279 110.703   5.369 110.855   5.282 111.636   5.282
 113.079   5.328 113.378   5.362 113.814    5.25 113.839   5.248 114.014    5.24
 114.311    5.26 114.461   5.246 114.873   5.259 115.154   5.233 115.608   5.346
 115.628    5.35 115.653    5.35 116.292   5.315 116.387   5.327 116.503    5.32
 116.766    5.27 117.103   5.215 117.426   5.234 117.659   5.245  118.71   5.054
 119.598   4.662 119.817   4.543 119.915   4.547 120.688   4.556 121.358   4.484
 121.396   4.472 121.704   4.468 122.962   4.512  124.78   4.516 126.578   4.497
 127.403   4.526 127.627   4.528 128.118   4.553 128.237   4.532 128.594   4.538
 128.733   4.533 129.379   4.596 129.469   4.606 129.541    4.61 129.607   4.617
 130.268   4.671  130.64   4.688 130.669   4.684 130.762   4.696 131.064   4.711
 131.211    4.72 131.257   4.723 131.876   4.741 132.002   4.735 132.264    4.78
 132.936   4.768 133.162   4.785 133.267   4.799 133.848   4.847 134.465   4.898
  134.65    4.89 134.655   4.889 134.664    4.89  134.68   4.891  134.87   4.907
 135.629   4.923 135.836   4.913  136.15   4.919 136.588   4.938 137.005   4.934
  137.11   4.939 137.483   4.965 138.431   4.969 138.435    4.97 138.449   4.971
 138.708   4.988 138.776    4.99 139.518   5.054 139.598   5.046  140.14   5.102
 140.498   5.128 140.604    5.14 140.706   5.156 141.298    5.27 141.748   5.333
 141.845   5.344 142.117   5.439 142.195   5.452 142.285   5.464 142.987   5.549
 143.008   5.527 143.151   5.526 143.652   5.608 143.948   5.665 144.006   5.659
 144.057   5.669 144.526   5.734 144.867   5.772 144.916   5.765 145.102   5.778
 145.629   5.849 145.864   5.878 145.873   5.873 146.029   5.898 146.398   5.946
 146.547    5.94 146.953   6.012 147.123   6.028 147.369    6.02 147.916   6.007
  147.97   5.998 148.166   6.013 148.266   6.019 148.333   6.059 149.002   6.492
   149.7   6.552 150.023   6.565 150.363   6.683 150.867   6.738 150.883   6.733
 151.007   6.732 151.698   6.811 151.781   6.817  151.82   6.874 151.987   6.871
 152.632   6.822 152.643   6.833 153.335   6.892 153.448    6.88 153.578   6.857
 153.586   6.857  154.37   6.884 154.854   6.918 154.912   6.914  154.99   6.887
 155.262   6.907 155.767   6.952     156   6.968 156.188   6.991  156.27   6.983
 156.316   6.965 156.727   6.972 157.194   6.997 157.504       7 157.594   6.975
 157.841   7.006 158.532   7.089 158.577   7.102 159.476    7.09 159.509   7.088
 159.511   7.089  159.56   7.088 159.622   7.042 159.628   7.037 160.496    7.04
 160.701   7.074 161.101   7.096 161.635   7.133 161.845    7.23 161.898   7.252
 162.263   7.416 162.361     7.5 163.205   7.732 163.554   7.842  163.64   7.929
 163.843    7.94 163.931   7.926 164.143   7.927 164.695       8
#Mann= 3 , 0 , 0 
       0     .03       0       0     .03       0 164.695     .03       0
Bank Sta=0,164.695
XS Rating Curve= 0 ,0
XS HTab Starting El and Incr=1.438,0.3, 29 
XS HTab Horizontal Distribution= 5 , 5 , 5 
Exp/Cntr=0.3,0.1

Type RM Length L Ch R = 1 ,944.43  ,87.38,87.38,87.38
XS GIS Cut Line=3
358090.765960784 4348091.6994902358097.529388062 4348016.2895023
358104.7488888894347935.79444444
Node Last Edited Time=Jun/18/2019 16:04:24
#Sta/Elev= 274 
       0      12   3.734  10.197   4.167  10.134   4.509   9.912   4.765   9.795
   5.102     9.7   5.389   9.629   5.465     9.6   5.597   9.615   6.154   9.727
   6.457   9.803   7.122   9.891   8.775    9.95   9.803   9.944   11.94    9.89
   11.98   9.891  11.987   9.891  12.015   9.901  12.375   9.911  13.737  10.026
  14.173  10.016  15.231   9.849  16.069    9.86  16.925   9.908  17.061   9.908
  17.497   9.917  17.676   9.925  17.977   9.936  18.131   9.897  18.282   9.953
  18.682  10.002  19.139  10.058  19.282  10.053  19.407  10.043   20.07    9.93
  20.212   9.903  20.242   9.901  20.256   9.902  20.279   9.904  20.861   9.911
  21.242   9.887  21.398   9.934  21.532   9.967  21.854   9.967  22.373   9.995
  22.444   9.968  22.865   9.985  23.084   9.998  23.208  10.004  23.474  10.038
  23.746  10.023  24.285  10.063  24.596  10.081  24.645  10.077  24.778  10.063
  25.312  10.019  25.597  10.035  25.823  10.052  26.054  10.093  26.501   10.15
  26.738  10.169  26.991  10.159  27.135  10.088  27.774  10.192   28.06  10.219
  28.693   9.961  28.718    9.95  28.728   9.952  29.544   9.942  29.737   9.985
  30.199   10.13  30.433  10.131  30.688   10.12  31.454      10  31.837   9.948
   32.09  10.024  32.694  10.116  33.184   10.24  34.237    10.3  34.619  10.311
  34.834  10.291  35.505  10.246  35.908  10.006   36.11   9.996   36.36  10.073
  36.819  10.036  37.057   10.02  37.174  10.013  37.562  10.039  37.648  10.025
  38.257   9.877  38.533   9.855  38.754   9.872  38.947   9.863  39.506   9.738
  39.642   9.672  39.845    9.71  40.862   9.809  40.906   9.805   40.96   9.808
  41.032   9.802  42.782   9.646  42.959   9.669  43.328   9.702  44.168   9.709
  44.583   9.708  44.656   9.691  45.088   9.616  45.541     9.6   45.83   9.621
  45.999   9.627  46.435   9.593  46.854   9.587  47.058   9.572  47.109   9.627
  48.377   9.607  48.895   9.588  50.035   9.536  50.774   9.137  50.987   9.002
  51.083   8.925  51.772   8.328  52.643   7.873  52.674   7.859  52.785   7.785
  53.521   7.305  54.332   6.824  54.535   6.678  54.802    6.53  55.197    6.34
  55.472   6.266  55.544   6.209  55.931   6.071  56.395   6.185  56.557   6.192
  56.776   6.077  57.356    5.69  57.831   5.599  58.102   5.524  58.594   5.503
  58.648   5.503  58.675   5.496  59.495    5.43  59.817   5.448  60.016   5.433
  60.367    5.39  60.589   5.377  60.863   5.334  60.986   5.394  61.941   4.756
  65.744   2.554  66.066   2.671  66.083    2.68  66.095    2.67  66.403   2.242
  74.693   2.151  75.713    2.11  85.966   1.701   86.12    1.79  86.449    1.72
  86.502   1.761  86.552   1.788  87.212   2.394  87.302   2.385   87.66   2.594
  89.714   3.364  93.198   3.603  96.232   4.171  98.653   4.629  98.855   4.663
  99.047   4.682  99.231   4.676  99.409   4.668 100.608   4.804 108.318   5.768
 119.678   5.924 121.593   6.298 122.724     6.2 124.302   6.199 124.759   6.195
 125.284   6.205 125.445   6.228 125.993   6.227 126.349   6.287 126.839   6.292
  126.97   6.271  127.27   6.322   128.1   6.365 128.226   6.371 128.258   6.367
 128.326   6.364 128.424   6.362 129.192   6.397 129.331   6.399 129.383   6.406
 129.766   6.437 130.743   6.362 130.762   6.361 130.767   6.361 131.621   6.482
 131.996   6.427  132.32    6.42 133.066   6.392 133.218   6.391 133.354   6.395
 133.483   6.412 133.862   6.488 134.345   6.523 134.644   6.537 135.287   6.572
 135.599   6.612 135.771   6.623 136.136   6.616 136.469   6.638 136.717   6.639
 137.071   6.675 137.382   6.709  138.18    6.73 138.243   6.719 138.369   6.721
 138.685   6.725 138.832   6.786 139.383    6.92 139.579   6.962 140.232    6.99
 140.301   6.992 140.674   7.109  140.87   7.133 141.279   7.163 141.411    7.16
 141.827    7.17 142.283   7.205 142.612   7.244 143.208   7.275 144.031   7.357
 144.073   7.357 144.473   7.366 145.007   7.426 145.507    7.47 146.067   7.482
 146.229   7.495 147.059   7.573 147.494   7.583 147.707   7.596 147.995   7.621
 148.141    7.62 148.317    7.65 148.768   7.693 149.143     7.7 149.432   7.682
 149.936   7.673 150.112   7.681 150.173   7.683 150.394   7.701 150.906   7.748
 151.235   7.778 151.416   7.796 151.798   7.815 152.033     7.8 152.654   7.873
 152.716   7.879 152.738   7.879 152.812    7.89 153.266   7.848 153.521   7.826
 153.581   7.827 153.612   7.831 153.817   7.854 154.579   7.927 155.143   7.891
 155.185   7.891 156.163   7.965 156.282   7.984 156.531       8
#Mann= 3 , 0 , 0 
       0     .03       0       0     .03       0 156.531     .03       0
Bank Sta=0,156.531
XS Rating Curve= 0 ,0
XS HTab Starting El and Incr=1.851,0.3, 34 
XS HTab Horizontal Distribution= 5 , 5 , 5 
Exp/Cntr=0.3,0.1

Type RM Length L Ch R = 1 ,857.05  ,102.3,102.3,102.3
XS GIS Cut Line=3
358051.6691666674348112.08416667358021.546198593 4348054.4413516
       357988.67      4347991.53
Node Last Edited Time=Jun/18/2019 16:04:24
#Sta/Elev= 246 
       0      14    .247  13.948    .293  13.944   1.209  13.932   1.279   13.94
   2.179  13.931   2.273   13.92   3.253  13.907   3.282  13.909   4.124  13.817
   4.209   13.81   5.021  13.836   5.147  13.827   5.914  13.765   6.078  13.751
   6.831  13.716   7.036  13.722   7.185  13.704   7.737  13.698    7.98  13.665
   8.182  13.612   8.656  13.625   8.937   13.61   9.177  13.565   9.582  13.517
   9.967  13.638  10.305  13.742  10.636  13.802   11.64  14.015  11.883  14.002
  12.248  14.022   12.72  13.999  13.048  13.957  14.225  13.654  16.082  12.979
   17.18  12.608  19.614  11.679  19.947  11.526  20.213  11.371  20.561  11.167
  21.361  10.714  21.831  10.435  22.214  10.415  22.509    10.7  22.735  10.825
  23.952  10.787  26.352   9.582  26.715   9.618  27.278   9.589  27.421    9.57
  27.466   9.552  27.611   9.571  28.328   9.606  28.722   9.642  29.136   9.624
  29.898   9.654  30.469    9.57  30.491   9.571  30.494   9.572  31.878   9.673
  33.842   9.674  40.294   7.296  40.313   7.292  40.369   7.269  40.428   7.252
   40.94   7.074  41.778   6.902  41.889   6.921  42.243   6.915  42.624   6.823
  43.035    6.79  43.138   6.771  43.194   6.773  43.628   6.705  43.949   6.711
  44.149   6.684  44.205   6.742  44.361   6.757  46.408    6.82  46.589   6.749
  47.056   6.589  47.328   6.495  48.749   5.606  50.947   4.285  52.517   3.298
  52.925   3.081  53.912   2.361  54.397   1.972  57.533   1.973  61.345   2.268
  64.185   2.344  65.039   2.231  66.164   2.082  72.487   2.337  72.517    2.36
  72.524   2.353  72.588   2.364   72.76   2.383  75.926   4.231  78.796   5.798
  79.018   5.825   79.15   5.824  79.328   5.868  79.567   5.881    79.7   5.893
  80.124   5.885  80.356   5.907  80.573   5.941  80.664   5.964  81.085    6.01
  81.392   6.204  81.561   6.258  82.445   6.335   82.57   6.359  82.602   6.371
  83.004   6.405  83.504    6.37  83.609    6.36  83.978   6.475  84.599   6.489
  84.929   6.552  85.774   6.436    86.6   6.119  86.701   6.063  87.217   5.798
   87.93   5.523   88.59   5.458  88.796   5.491  89.476   5.629  89.716   5.662
  89.788   5.676  89.826   5.676  90.239   5.752  90.806   5.907  90.961   5.847
  91.544   5.934  92.781   5.968  94.661   5.874  94.706    5.87  94.711   5.869
  94.714   5.872  95.278   5.545  95.718   5.293  95.729   5.288  96.696   5.154
  96.719   5.142  96.757   5.131  97.188   4.843  98.581   4.607  98.715   4.602
  98.826   4.616  99.287   4.675  99.916   4.671 100.052   4.675 100.544   4.542
 100.666   4.526  100.72   4.512 101.497    4.57 101.658   4.555 101.715   4.557
 102.476   4.419 102.667   4.422 103.345   4.405 103.442   4.416 103.673   4.414
 104.274   4.564 104.382   4.564 104.666   4.535 105.256   4.468 105.362   4.491
 105.691   4.476 106.234   4.416 106.716   4.365 107.211    4.36 107.307   4.347
 107.738    4.36 108.191   4.355 108.283   4.388 108.763    4.39 109.056   4.443
 109.798    4.53  110.14   4.593 110.813   4.683  111.12   4.717 111.846   4.844
 112.108   4.827 112.162   4.816 113.574   4.787 113.787    4.83 114.101   4.855
 115.052   4.863 115.099   4.854 116.079   4.935 116.113   4.934 117.139    4.81
 117.145    4.81  117.29   4.814 118.139   4.828 118.613   4.854 119.075   4.868
  119.14   4.866 119.225   4.867 120.112    4.94 120.122    4.94 120.269    4.92
 121.108   4.929 121.165   4.929 121.319   4.894 122.102   4.892  122.22   4.891
 122.373   4.808 123.121   4.798 123.284   4.791 123.425   4.793 124.118    4.81
 124.339   4.804 124.475   4.774 125.108   4.827 125.384   4.855 125.513   4.883
 125.953   4.938 126.713   5.027 127.051   5.107 127.506   5.128 127.617   5.131
 128.073   5.196 128.558    5.21 128.656   5.188 129.058   5.276 129.628   5.425
 129.701    5.44 130.041   5.527 130.685   5.626 130.742   5.634 131.027   5.666
 131.749   5.742  131.79   5.745 132.009   5.775 132.814   5.866 132.846   5.863
  133.78   5.891 134.017   5.905 134.964   5.968 134.973   5.968 135.025   5.972
 136.023       6
#Mann= 3 , 0 , 0 
       0     .03       0       0     .03       0 136.023     .03       0
Bank Sta=0,136.023
XS Rating Curve= 0 ,0
XS HTab Starting El and Incr=2.122,0.3, 40 
XS HTab Horizontal Distribution= 5 , 5 , 5 
Exp/Cntr=0.3,0.1

Type RM Length L Ch R = 1 ,754.75  ,208.86,208.86,208.86
XS GIS Cut Line=3
357983.3498113214348159.70358491357930.0656043274348099.09645179
357884.7898137854348047.59834346
Node Last Edited Time=Jun/18/2019 16:04:24
#Sta/Elev= 448 
       0      16     .22  15.969    .601    15.9    .662  15.903   1.039  15.915
   1.245  15.943   1.782  15.976   2.031  15.983   2.156  15.983   2.927  16.096
   3.039  16.116   3.092  16.109   3.806  16.113   4.061  16.104   4.606   16.15
   4.955  16.186       5  16.189   5.043  16.197   5.805  16.264   5.959  16.258
   6.092   16.27   6.608   16.26   6.881  16.245   7.099  16.276   7.445  16.237
   7.772  16.225   8.054  16.228   8.547  16.309   8.634  16.315   9.213  16.326
  10.134  16.334  10.728   16.28  11.558  16.186  11.736  16.176  11.985  16.227
  12.411  16.298  12.606  16.289  12.717  16.278  12.877  16.283  13.446  16.278
  13.683  16.311  13.724  16.306  13.784  16.306  14.349  16.246  14.488  16.232
  14.504  16.233  14.749  16.223  14.788  16.222  15.406  16.245   15.53  16.248
  15.699   16.28  15.823  16.257  16.058  16.277  16.503  16.256  16.611  16.249
  16.826  16.243  17.196  16.257  17.439  16.287  17.723  16.294  17.787  16.287
  18.284  16.269  18.335  16.269  18.718  16.297  18.733  16.293  18.894  16.313
  19.273  16.346  19.638  16.309  19.671  16.297  20.106   16.27  20.287  16.285
  20.566  16.299  20.872  16.314  21.013  16.336  21.314  16.276  21.532  16.235
  21.762  16.227  21.967  16.272  22.387  16.243   22.53   16.24  22.672  16.235
  22.931  16.203  23.079  16.254  23.537  16.243  23.653  16.231  24.018  16.272
  24.934  16.221  24.965  16.221  25.035  16.226  25.598  16.267  25.886  16.283
  26.043  16.282  26.164  16.283  26.567  16.278  26.756  16.327  27.107   16.39
  27.332   16.39  27.494  16.383  27.578  16.392  28.142  16.372  28.377   16.36
   28.69  16.371  29.197  16.388  29.488  16.387  30.014  16.382  30.096  16.382
  30.137  16.384  30.844  16.439  31.045  16.444  31.153   16.45  31.689  16.445
  32.014  16.454  32.206  16.469  32.564  16.497  33.017  16.466   33.29   16.43
  33.458  16.418  34.042  16.501  34.347  16.476  34.389  16.471  35.083   16.51
  35.091   16.51  35.384  16.475  35.922  16.593  36.156  16.588  36.331   16.53
  36.702  16.555  37.164  16.583  37.247  16.604  38.069  16.556   38.12  16.554
  38.137  16.553  38.371  16.563   38.98  16.658  39.291  16.667  39.829  16.635
   39.96  16.639  40.706   16.69  41.039  16.683  41.607  16.696  42.174  16.696
   42.54  16.667  43.342  16.657   43.49  16.649  44.141   16.62  44.352  16.609
  44.484  16.606   44.99  16.606   45.55  16.597   45.64  16.587  45.786  16.587
  46.351  16.554  46.632  16.549  47.021   16.56   47.62  16.475  47.724  16.478
  48.694  16.562   49.15  16.581  49.273  16.598  49.591  15.195  50.422  16.157
  50.534   16.63  51.272  16.657  51.667  16.636  52.175   16.59  52.862  16.612
  53.112  16.616  54.004  16.573  54.052  16.572  54.065   16.57  54.089  16.572
  54.811  16.588  55.004  16.569  55.436  16.626  55.569   16.63  55.913  16.576
  56.321   16.59  56.471  16.584  56.557  16.577  56.687  16.573  57.536  16.546
  58.352  16.559  58.466  16.563  58.523  16.558  58.672  16.573  58.991  16.588
  59.197  16.567  59.684  16.581  59.975  16.567  60.046  16.569  60.789  16.493
  61.061  16.492  61.623  16.518  62.103  16.489  62.474  16.455  63.177  16.442
  64.077  16.434  64.249  16.433  64.396  16.433  65.072  16.443  66.134  16.489
  66.141   16.49  66.156  16.408  66.171  16.353  66.204  16.074  67.619   6.552
   68.23   3.601  68.631   3.691    68.8   3.675  69.087    3.62   69.58   3.544
  69.696    3.52  69.831   3.513  70.029   3.466  70.672   3.422  70.722   3.411
  70.886   3.378  70.978   3.361  71.661    3.21  71.765   3.185  71.777   3.183
  71.948   3.096  71.969   3.086  71.993   3.081  72.791   3.014  72.902   3.085
  73.092   2.976  73.288    3.05  73.765    2.89  73.831    2.85  75.117   2.335
  75.289   2.278  75.362   2.272  75.651   2.253  76.146   2.253  76.171   2.245
   76.26   2.256  76.628    2.27  77.026   2.368  77.085   2.362  77.301   2.367
  77.606   2.328  77.685   2.351  78.514   2.251  79.492    2.21   80.48   2.057
    80.7   2.042  80.724    2.04  80.907   1.947  81.343   2.025  85.012   2.616
  87.831    2.93  92.753   2.373  92.827   2.503  93.012   2.186  93.155   2.489
  93.188   2.535  93.499   2.976  93.922   3.208  93.968   3.085   94.08   3.187
  94.609   3.543  94.825   3.924  94.857   4.066  94.931   4.111   95.65   4.484
  95.689   4.742   95.75   4.758  95.767   4.767  96.006   4.997  96.264   5.249
  96.617   5.558  96.658   5.589  96.677   5.604  96.784   5.604  98.376   5.727
   98.55   5.642  98.714   5.659  99.273   5.637  99.527   5.706  99.764   5.693
 100.176   5.655 100.529   5.662 100.841   5.659 101.091   5.649 101.544    5.62
  101.92   5.607  102.01   5.602 102.699   5.651 103.471   5.682 103.782   5.667
  104.19   5.613 104.584   5.638 104.772   5.545 105.349   5.572 105.579   5.553
 105.892   5.506  105.94   5.503 106.497    5.45 106.559   5.465 106.698   5.507
 106.955   5.582 107.518   5.519 107.572   5.516 107.647   5.508 108.038   5.459
 108.487   5.444 108.633   5.431 108.821   5.423 109.117   5.376 109.457    5.37
 109.693   5.388 109.996   5.442 110.188   5.417 110.432   5.448 110.538   5.461
 111.683   5.449 111.836   5.439 111.912    5.43 112.042   5.439 112.926   5.442
 112.945   5.439 113.268   5.422 113.855   5.393 113.995   5.378  114.06    5.37
 114.381   5.378 114.964   5.324 115.854   5.307 116.028   5.301 116.091   5.302
 116.371   5.358  116.53   5.333 117.049   5.284   117.3   5.292 117.361   5.298
 117.432   5.299 118.057   5.413 118.276   5.398 118.419    5.39 118.583   5.399
 119.073   5.478 119.256   5.527  119.47   5.562 119.723   5.605 120.092   5.601
 120.235   5.677 120.539   5.689 120.898   5.601 121.141   5.514 121.233   5.523
 121.617   5.643 122.062   5.597 122.171   5.601 122.215   5.621 122.681   5.763
   123.1   5.794 123.182   5.794  123.21    5.79 123.761   5.533 123.806   5.524
 124.158   5.541 124.421   5.567 124.778   5.551 124.888    5.53 125.099   5.538
 125.603   5.583 125.784   5.618 125.948   5.627 126.023   5.626 126.741   5.802
 126.771   5.803 126.833   5.779 127.012   5.713 127.751   5.812 127.832    5.83
 127.905    5.82 128.102   5.767 128.715   5.813 129.044   5.873 129.187    5.86
 129.658   6.097 129.924   6.135 130.163   6.101 130.263   6.039  130.63   6.007
 131.002   6.027  131.32   6.092 131.369   6.101 131.591    6.14 132.448   6.303
 132.463   6.303 132.538   6.322 133.038   6.414 133.399   6.506 133.555    6.51
 134.062   6.561 134.137   6.571 134.157   6.572 134.641   6.633 135.032   6.677
 135.488     6.7 135.732   6.725  135.91   6.704 136.125    6.76  136.73    6.82
 136.874   6.844 137.106   6.937 137.152   6.928 137.681   6.974 139.024   7.075
 139.165   7.083 139.263   7.076 139.949   7.117 140.188   7.204 140.361   7.107
 140.713   7.019 140.885   7.013 141.238   7.116 141.467   7.091 141.812   7.114
 142.261   7.197 142.574   7.002 142.682   7.007 142.742   7.015 143.284   7.184
  143.63     7.2 143.642   7.201 143.872   7.169 144.324   7.105 144.601    7.02
 144.706   6.979 144.989   7.032 145.393    7.05 145.545   7.085 145.749   7.125
  146.06   7.179 146.441   7.209 146.493   7.187 146.785   7.408  147.25    7.31
 147.524   7.205 147.887   7.166 147.916   7.157 147.956    7.17 148.614   7.226
 148.903   7.246 149.184   7.255  149.27   7.247
#Mann= 3 , 0 , 0 
       0     .03       0       0     .03       0  149.27     .03       0
Bank Sta=0,149.27
XS Rating Curve= 0 ,0
XS HTab Starting El and Incr=2.097,0.3, 49 
XS HTab Horizontal Distribution= 5 , 5 , 5 
Exp/Cntr=0.3,0.1

Type RM Length L Ch R = 1 ,545.89  ,152.28,152.28,152.28
XS GIS Cut Line=3
357811.148461538      4348299.97 357757.15731531 4348216.2177361
357717.7517733994348155.09098522
Node Last Edited Time=Jan/13/2021 11:12:06
#Sta/Elev= 464 
       0      14    .508   14.08    .634  14.098   1.201  14.127   1.547  14.115
   1.918  14.118   2.468  14.122   2.606   14.12   3.061  14.165   3.372  14.189
    3.39   14.19   4.247  14.209    4.31  14.209    5.15  14.262   5.259  14.273
   6.045  14.275   6.205  14.272   6.953   14.28   7.174   14.28   7.862  14.287
   8.125  14.301   8.789  14.323   9.111  14.313   9.719    14.3   10.27  14.276
  10.662  14.289  11.169  14.324  11.606  14.311  12.072   14.29  12.564  14.301
  12.892  14.308  12.983  14.288  13.531  14.273  13.828  14.265  13.908  14.249
  14.512  14.222   14.77  14.227  14.834  14.215  15.487  14.163  15.715  14.155
  15.771  14.145  16.481  14.117  16.671  14.118  16.718  14.115  17.495  14.084
  17.648  14.075  17.688  14.074  18.505  14.033  18.618  14.033  18.645  14.023
   19.53  13.962  19.605  13.958  19.626  13.954  20.568  13.919  20.598  13.918
  20.607  13.919  20.631  13.918  21.448  13.844   21.58  13.833  21.601  13.831
   21.61  13.833  22.413  13.856  22.568  13.847  22.648  13.849  23.255  13.841
  23.542  13.836  23.589  13.839  23.697  13.862  24.107  13.888  24.566  13.892
  24.741  13.885  24.955  13.892  25.544  13.931  25.793   13.91  25.802   13.91
    26.5  13.939  26.771  13.901  26.802  13.899  26.835  13.902  27.458  13.929
  27.722   13.89  27.791  13.882  27.863  13.873  28.423  13.801  28.667  13.702
  28.773  13.686  28.885  13.628  29.361  13.529  29.594  13.489   29.74  13.488
   29.88   13.43  30.297  13.332  30.525   13.31  30.702  13.295  30.873   13.24
  31.055  13.228  31.478  13.162  31.643  13.165   31.84  13.164  32.063  13.092
  32.428  12.996  32.574  12.982  32.804  12.882  33.056  12.915  33.358  12.909
  33.657  12.835  33.751  12.817  34.044  12.793  34.285  12.752  34.596  12.665
  34.683  12.644  35.019  12.602  35.205  12.575  35.542  12.522  35.611   12.52
  35.975  12.505   36.34  12.431  36.471  12.418  36.522  12.415  36.917  12.364
  37.314  12.298  37.389  12.285  37.422  12.283  37.857  12.236  38.264  12.147
  38.291  12.143  38.764   12.13  38.775   12.13  39.209   12.09  39.212   12.09
  39.678   12.05  39.702  12.047  40.116  12.009  40.137  12.008  40.597  11.979
  40.653  11.976  41.042  11.912  41.083  11.909  41.525    11.9  41.874  11.831
  41.955  11.824  42.016  11.816  42.453  11.798  42.793  11.717  42.905  11.702
  42.989  11.682  43.392   11.64   43.71  11.595  43.845   11.59  43.953  11.561
  44.351  11.533  44.647  11.484   44.81  11.449   45.18  11.379  45.312    11.4
  45.574   11.34   45.76  11.298  46.127   11.29  46.286  11.292  46.521  11.237
  46.729  11.203  47.076  11.166  47.269  11.141  47.479   11.13  47.764  11.099
  48.032  11.074  48.263  11.055  48.446   11.04  48.713  11.007      49  10.975
  49.197  10.931  49.419  10.879  49.664  10.845  49.836   10.83  50.167   10.76
  50.405  10.786  50.619  10.772  50.771  10.758  51.119  10.737  51.403  10.704
    51.6  10.684  51.722  10.653  52.094  10.589  52.413  10.546  52.579  10.548
  52.678  10.534  53.061  10.514  53.427  10.467   53.57  10.446  53.649  10.438
  54.055  10.308  54.467  10.261  54.574  10.249  54.632  10.218  55.045  10.195
   55.52  10.142   55.59  10.143  55.625  10.135  56.039  10.023  56.585   9.881
  56.616   9.875  56.629    9.87  57.061   9.809  57.591   9.646  57.639   9.629
  57.707   9.621  58.503   9.421  58.655   9.356  58.898   9.268  59.404   9.101
  59.654   9.046  60.064   8.962   60.32   8.916  60.642   8.833  61.208   8.697
  61.253   8.683  61.618   8.526  62.182   8.368  62.263   8.349  62.593    8.29
  63.114   8.157  63.276   8.129  63.468   8.134  64.032   8.162  64.263   8.133
  64.553   8.129   65.02   8.158  65.244   8.108  65.638   8.112  66.022   8.146
  66.216   8.165  66.695   8.098  67.003    8.04  67.171   8.014  67.755   7.974
  67.974   7.976  68.108   7.977    68.8   7.915  68.946   7.904  69.043   7.894
  69.824   7.884  69.902    7.88  69.958   7.876  70.833    7.85  70.849    7.85