Geom Title=783 Geometry Data
Program Version=5.07
Viewing Rectangle= 339363.718134715 , 339891.130787786 , 4793637.0544 , 4793101.1056 

River Reach=cocheco river   ,RiverCL         
Reach XY= 30 
       339775.97       4793631.8       339787.85      4793619.28
       339792.11      4793599.23       339800.83      4793582.24
       339809.48       4793565.4       339821.58      4793523.42
       339821.58      4793508.09       339815.96       4793492.1
       339796.72      4793475.91       339757.27      4793463.34
       339712.75      4793458.38       339668.44      4793454.06
       339621.72      4793444.15       339585.16        4793430.
       339533.29      4793409.91       339471.01      4793386.31
       339440.76      4793372.28       339421.25      4793356.06
       339416.77      4793341.39       339410.07       4793319.5
       339415.26      4793294.66       339429.74      4793282.14
       339438.44      4793267.22        339450.1      4793253.97
       339469.12      4793232.38       339514.06      4793218.87
       339547.79      4793210.13       339557.31      4793202.04
       339569.84      4793172.45       339564.01      4793106.36
Rch Text X Y=339617,4793237.72
Reverse River Text= 0 

Type RM Length L Ch R = 1 ,832.37  ,87.1,87.1,87.1
XS GIS Cut Line=3
339755.3156085674793547.58139452 339811.291836344793559.10062016
339885.9600755014793574.46643398
Node Last Edited Time=Jul/02/2019 12:16:20
#Sta/Elev= 27 
       0  52.786  12.925  52.832  35.825  52.904  37.454  52.784  38.822  52.677
  39.588  52.672   40.43  52.624  41.882  52.548   41.97  52.532  46.703  52.577
  54.119  52.615  57.149  52.716  66.261  53.018  66.935  53.226  68.055  53.414
  68.189  53.447  86.925  54.802  99.556  55.755 115.133  56.769 115.835  56.768
 119.776  57.061 120.367   57.05 125.968   56.97 130.636  56.847 132.928  56.798
 133.343  56.762 133.382  56.753
#Mann= 3 , 0 , 0 
       0     .03       0       0     .03       0 133.382     .03       0
Bank Sta=0,133.382
XS Rating Curve= 0 ,0
XS HTab Starting El and Incr=52.682,0.22, 20 
XS HTab Horizontal Distribution= 5 , 5 , 5 
Exp/Cntr=0.3,0.1

Type RM Length L Ch R = 1 ,745.27  ,154.28,154.28,154.28
XS GIS Cut Line=3
339755.9396486664793520.27447434339802.4242590984793480.70513262
339878.3188459834793416.10098053
Node Last Edited Time=Jan/17/2021 21:29:26
#Sta/Elev= 78 
       0  52.706    .986  52.713   2.277   52.67   3.563  52.609    6.66  52.595
    6.78  52.595   8.192  52.651   9.607  52.763  15.845      53  15.896      53
  15.952  52.992  17.455  52.982  18.326  52.998  18.935  53.003  28.712  53.062
  31.714  52.969  32.022   52.93   32.34  52.938  32.545  52.933  61.045  52.576
  65.047  52.526  66.126  52.521  69.628  52.479  70.612  52.473   72.02  52.881
  83.327  53.584  95.802  54.169  97.337  54.183  98.815  53.989  99.589  54.023
 100.637  53.998 101.174  53.928 102.697  54.067 108.695  54.138 111.769  54.262
 120.794  54.726 121.419  54.763 121.831  54.779 123.422  54.831 124.878  54.841
 125.701  54.825 126.413  54.792  127.24  54.733 127.942  54.802 129.613  54.774
 130.332  54.656 131.675  54.766 133.377  54.866 134.247  54.827 135.655  54.779
 136.094  54.831 137.728  54.991 138.448  54.991 140.926  54.964 142.099  54.794
 142.614  54.708 143.219   54.85 144.118  54.915 144.742  54.806  145.66   54.83
 146.265  54.874 147.192  54.892 147.796  54.865 149.678  54.896 150.265  54.965
 150.861  54.931 151.796  55.012 152.797   54.85 153.925  54.879  154.87  55.018
 155.453  54.926 156.456  54.775 156.997  54.868  157.98  54.926 158.526  54.943
  159.52  54.871 160.492  55.034 160.713  55.036
#Mann= 3 , 0 , 0 
       0    .003       0       0    .003       0 160.713    .003       0
Bank Sta=0,160.713
XS Rating Curve= 0 ,0
XS HTab Starting El and Incr=52.623,0.12, 20 
XS HTab Horizontal Distribution= 5 , 5 , 5 
Exp/Cntr=0.3,0.1

Type RM Length L Ch R = 1 ,590.99  ,145.99,145.99,145.99
XS GIS Cut Line=3
339642.0075433414793499.16706148  339652.68963244793450.71564832
339667.0363576164793385.64231788
Node Last Edited Time=Jan/17/2021 21:57:48
#Sta/Elev= 27 
       0  54.532    .495  54.523   2.306  54.499   3.092    54.5   3.994  54.406
   5.085  54.316   6.447  54.616   7.771  54.552  23.503   53.52  28.391  53.314
  30.464  53.201  32.095  52.867  35.671  52.981  37.348  53.382  49.615  53.637
   50.43  53.654  69.528   53.52  71.585  53.569  71.685  53.577  73.353  53.767
  74.329   53.78  76.625   53.94  87.444  54.048 100.879  54.378 101.537  54.387
 104.144  54.558 116.251      56
#Mann= 3 , 0 , 0 
       0      .9       0       0      .9       0 116.251      .9       0
Bank Sta=0,116.251
XS Rating Curve= 0 ,0
XS HTab Starting El and Incr=53.017,0.15, 20 
XS HTab Horizontal Distribution= 5 , 5 , 5 
Exp/Cntr=0.3,0.1

Type RM Length L Ch R = 1 ,445     ,91.68,91.68,91.68
XS GIS Cut Line=3
339494.5460920564793449.00521223 339515.050602094793402.99895356
339532.8736785864793363.00906518
Node Last Edited Time=Jan/17/2021 22:04:10
#Sta/Elev= 26 
       0  52.497   4.912  52.599  10.443  52.712  13.734  52.736  17.983  52.832
  19.677  52.798  29.062  52.856  29.689  52.842  33.352  52.835  34.316  52.726
  34.663  52.676  34.693  52.677   34.92  52.677  34.942  52.678  35.282  52.682
  50.369   52.71  64.679  52.737  81.854   53.59  85.261  53.804  87.471  53.773
  87.909  53.759  89.128  53.802  89.324  53.805  91.372  53.629  93.763  53.558
  94.151  53.568
#Mann= 3 , 0 , 0 
       0    .004       0       0    .004       0  94.151    .004       0
Bank Sta=0,94.151
XS Rating Curve= 0 ,0
XS HTab Starting El and Incr=52.647,0.06, 20 
XS HTab Horizontal Distribution= 5 , 5 , 5 
Exp/Cntr=0.3,0.1

Type RM Length L Ch R = 1 ,353.32  ,67.7,67.7,67.7
XS GIS Cut Line=3
339398.0620386274793403.57594436 339432.116935614793365.09559595
 339458.160768794793335.66735322
Node Last Edited Time=Jan/17/2021 22:11:24
#Sta/Elev= 50 
       0  60.624    .217  60.637    .401   60.64   1.713    60.6   2.025  60.586
   3.205   60.57   3.665  60.576   4.704  60.596   5.303  60.564   6.207  60.527
   6.934  60.555   7.706  60.556   7.795  60.546   7.902  60.568    8.23  60.586
  17.935  57.451  21.129  56.461  30.637  53.524   31.62  53.322  34.564  53.018
  34.821  52.986   35.49  53.042  36.161  53.093   37.39  52.949  38.503  52.716
  38.832  52.617  39.097  52.585  39.765  52.579  51.386  52.526   59.16   52.49
  62.818  52.639  64.111  52.812  64.629  52.608  65.629  53.242  66.487  53.417
  67.984  53.241  69.346  53.942  70.918      54  71.561  53.981  74.263   53.81
  75.778  53.717  75.936  53.706  79.871  53.713  81.498  53.739  82.858  53.646
   85.26  53.589   89.16  53.618  90.231  53.597  90.544  53.607  90.683  53.607
#Mann= 3 , 0 , 0 
       0    .003       0       0    .003       0  90.683    .003       0
Bank Sta=0,90.683
XS Rating Curve= 0 ,0
XS HTab Starting El and Incr=52.64,0.3, 27 
XS HTab Horizontal Distribution= 5 , 5 , 5 
Exp/Cntr=0.3,0.1

Type RM Length L Ch R = 1 ,285.62  ,56.36,56.36,56.36
XS GIS Cut Line=3
   339368.8888474793295.22768995339413.2049063234793304.49037895
339457.5196202934793313.75278674
Node Last Edited Time=Jan/17/2021 22:14:14
#Sta/Elev= 45 
       0  60.499    .327  60.524     .71  60.533   1.304  60.585   1.803  60.649
   2.299  60.685   2.721  60.665   3.086  60.695   3.324  60.717   6.468  60.734
   6.926  60.752   9.347  60.679  14.229  60.535  14.991  60.463  27.418  55.627
  28.577  55.201  33.818  52.647  34.961   52.57  41.213  52.522  45.274  52.482
  46.545  52.469  46.588  52.472  48.117  52.402  54.228  52.492  57.572  52.631
  58.296  52.612   58.46  52.595  59.266  52.727  66.556  53.879  67.017  53.893
  67.863  53.913  69.656  53.865  73.917  53.788  76.525  53.696  76.769  53.678
  78.881  53.705  82.545  53.632  83.103  53.625  83.366  53.625  84.211   53.67
  85.969  53.456  86.521  53.402  87.181  53.347   87.48  53.364  90.546  53.455
#Mann= 3 , 0 , 0 
       0    .002       0       0    .002       0  90.546    .002       0
Bank Sta=0,90.546
XS Rating Curve= 0 ,0
XS HTab Starting El and Incr=52.552,0.3, 27 
XS HTab Horizontal Distribution= 5 , 5 , 5 
Exp/Cntr=0.3,0.1

Type RM Length L Ch R = 1 ,229.26  ,56.82,56.82,56.82
XS GIS Cut Line=3
339410.878784661 4793226.5898617339444.988228205 4793259.7835116
339474.617950844 4793288.6177152
Node Last Edited Time=Jan/17/2021 22:24:34
#Sta/Elev= 54 
       0  60.315   1.259   60.31   3.115  60.311   21.32  55.282  23.118  54.682
  23.199  54.661  23.259  54.644  23.993    54.7  24.455  54.587  24.752  54.407
  25.365  54.256  25.584  54.213  26.221  54.154  26.503  54.129  26.905  54.041
  27.602   53.87  28.286  53.796  28.406  53.783  29.077  53.676  29.752  53.561
  29.881  53.544  29.933  53.534  30.669  53.425  30.867   53.36  31.525  53.225
  32.091  53.019   32.38  52.888   33.14  52.593  33.201  52.568  33.309  52.547
   34.14  52.375  34.714  52.435   36.06  52.424  36.765  52.431  39.517  52.552
  42.269  52.417  42.607  52.405  43.384  52.416  45.256   52.51  47.595  52.547
  51.555   52.61  57.488  52.775   76.08  52.937   77.62   52.93  77.907  52.922
  80.268  52.872  81.481  52.813   82.63  52.664  83.515  52.623  84.612  52.629
  85.329   52.66  86.187  52.635  86.788   52.62  88.939  52.724
#Mann= 3 , 0 , 0 
       0    .003       0       0    .003       0  88.939    .003       0
Bank Sta=0,88.939
XS Rating Curve= 0 ,0
XS HTab Starting El and Incr=52.525,0.3, 26 
XS HTab Horizontal Distribution= 5 , 5 , 5 
Exp/Cntr=0.3,0.1

Type RM Length L Ch R = 1 ,172.44  ,90.91,90.91,90.91
XS GIS Cut Line=3
339474.6555863954793190.29623015339488.5654872344793226.53222875
339502.1580283764793261.94148921
Node Last Edited Time=Jan/17/2021 22:26:58
#Sta/Elev= 54 
       0  59.114     .14  59.108    .541  59.095    .876  59.091   1.716  59.085
   3.201  59.127   3.626  59.135   3.922  59.187   4.579  59.213    4.95  59.243
   5.193  59.252   6.134  59.319   6.367  59.326    8.26   59.35   8.969  59.366
   9.854  59.367   9.913  59.368  10.164  59.281  12.535  58.516  13.544  57.804
  14.013   57.73  14.494  57.543  16.823    57.5  17.811  57.423  19.071  57.328
  19.514   57.32  19.989  57.326   20.53  57.305   21.12  57.236  21.408  57.223
  21.679  57.221  23.763  55.878  24.702  55.197  25.577  54.073  26.407  53.341
  27.011  52.964   30.41    52.6  38.814  52.709  39.981  52.724  54.766  53.241
  55.972  53.333   57.01   53.19  57.102  53.182   61.28   53.37  61.559  53.367
  64.225  53.303  65.066  53.269  66.341   53.25  67.309  53.329   67.81  53.283
  75.555  53.031  76.108  53.092  76.607   53.07  76.743  53.076
#Mann= 3 , 0 , 0 
       0    .002       0       0    .002       0  76.743    .002       0
Bank Sta=0,76.743
XS Rating Curve= 0 ,0
XS HTab Starting El and Incr=52.75,0.3, 22 
XS HTab Horizontal Distribution= 5 , 5 , 5 
Exp/Cntr=0.3,0.1

Type RM Length L Ch R = 1 ,81.53   ,35.99,35.99,35.99
XS GIS Cut Line=3
339528.0028113384793172.98922938339563.9210294954793186.43217225
339612.2593284144793204.52352041
Node Last Edited Time=Jan/17/2021 23:07:55
#Sta/Elev= 53 
       0  56.748    .119   56.75    .431  56.741    .807  56.738   1.916  56.717
   2.186  56.709   2.901   56.72   3.272  56.729   3.488  56.705   3.954  56.674
   5.136  56.688   5.207  56.691   5.246  56.695   5.929  56.804   6.701  56.816
   8.329  56.731  16.676  56.223  19.951  55.588  21.408  55.536  26.392  54.319
  28.482  53.889  33.305  52.609  38.351  52.999  41.894  53.273  61.163  54.888
  62.865   54.85  63.175  54.883  64.598  54.847   65.09  54.834  65.864  54.834
  66.209  54.841   67.85  54.881  68.826    54.9  69.471  54.904  70.395  54.869
  72.863   54.92  72.871   54.92  72.917  54.921  74.105  54.946  74.257  54.951
   76.97   54.96  77.466  54.962  77.732  54.982  78.135  54.992  78.663  55.009
  81.451  55.137  82.335  55.176  84.671  55.137  85.119  55.137  86.081  55.113
  86.395  55.068  86.764  55.112  89.964  55.322
#Mann= 3 , 0 , 0 
       0     .01       0       0     .01       0  89.964     .01       0
Bank Sta=0,89.964
XS Rating Curve= 0 ,0
XS HTab Starting El and Incr=52.759,0.2, 20 
XS HTab Horizontal Distribution= 5 , 5 , 5 
Exp/Cntr=0.3,0.1

Type RM Length L Ch R = 1 ,45.54   ,31.66,31.66,31.66
XS GIS Cut Line=3
339536.7329577464793156.39976635339568.0142380624793151.72976413
339609.8745552234793145.48041078
Node Last Edited Time=Jan/18/2021 12:00:42
#Sta/Elev= 69 
       0  55.715   1.135  55.998  10.447  55.408  16.032  53.925  18.498  53.676
  18.823  53.686  20.237  52.573  20.625  52.584  20.982  52.549  21.211  52.633
  22.111  53.249  23.133  53.425  24.004  53.796  25.314  54.167  26.512  54.676
  31.628  55.894  32.499  56.101  32.633  56.094  32.741  56.091  34.374  56.023
  36.873  55.929  37.664  55.958  38.486  55.902  38.625  55.896  38.757   55.88
  39.777  55.847   40.43  55.859  40.954  55.869  41.772  55.904  42.201   55.91
  43.103  55.877  43.569  55.857  43.787  55.855  44.816  55.851   45.38  55.844
  46.038  55.839  47.264   55.86  49.023   55.86  49.289  55.867  50.524   55.87
  51.355   55.89  51.977  55.879  52.898  55.857  53.586   55.83  54.978  55.835
  55.321  55.837  55.544   55.83  56.728  55.835  57.883  55.799  58.146  55.783
  58.549  55.779   59.72  55.689  60.956  55.602  61.483   55.56  61.975  55.539
  63.171  55.458  63.946   55.46  64.863  55.445  65.921  55.401  66.555  55.356
   67.88  55.341  68.228  55.314  69.843  55.312  69.908  55.311  70.158  55.317
  70.296  55.309  72.821  55.261  73.479  55.235  73.952  55.217
#Mann= 3 , 0 , 0 
       0      .5       0       0      .4       0  73.952      .4       0
Bank Sta=0,73.952
XS Rating Curve= 0 ,0
XS HTab Starting El and Incr=52.699,0.17, 20 
XS HTab Horizontal Distribution= 5 , 5 , 5 
Exp/Cntr=0.3,0.1

Type RM Length L Ch R = 1 ,13.88   ,,,
XS GIS Cut Line=3
339529.6774910934793122.00820549339565.2322403264793120.19217279
339609.143160298 4793117.9493313
Node Last Edited Time=Jan/18/2021 12:02:20
#Sta/Elev= 61 
       0  54.624  35.601  52.628   38.78   52.45  38.879  52.454  39.005  52.459
  41.898  52.506  42.126  52.544  42.649   52.69  50.983  53.048  54.804  54.542
  54.833  54.553  54.859   54.56   56.21  54.862  56.445   54.85  56.895  54.824
  57.324  54.788  57.462  54.789  57.655  54.799  58.316   54.83  58.785  54.841
  59.122  54.846  59.398  54.853  59.931  54.867   60.17  54.867   60.59  54.863
   60.76  54.856  60.827  54.872   61.64  54.834  61.665  54.832   62.59  54.847
  62.794  54.842  63.097  54.861  63.456  54.879  63.833  54.904  64.235  54.912
  65.277  54.926  65.667  54.969  66.075  55.003  67.122   54.92  68.239  54.923
  68.295  54.919  68.891  54.884  69.356  54.881   69.95  54.881  70.301  54.877
  70.763  54.849  71.287  54.855  72.343  54.901  72.492  54.907  72.567  54.907
  72.711  54.892  73.615  54.788  74.155  54.795  75.243   54.81  75.594  54.818
   75.77  54.825  76.603  54.924   77.06  54.955  77.915  54.998  79.566   55.07
  79.569   55.07
#Mann= 3 , 0 , 0 
       0     .02       0       0     .02       0  79.569     .02       0
Bank Sta=0,79.569
XS Rating Curve= 0 ,0
XS HTab Starting El and Incr=52.6,0.12, 21 
XS HTab Horizontal Distribution= 5 , 5 , 5 
Exp/Cntr=0.3,0.1

LCMann Time=Dec/30/1899 00:00:00
LCMann Region Time=Dec/30/1899 00:00:00
LCMann Table=0
Chan Stop Cuts=-1 



Use User Specified Reach Order=0
GIS Units=Meters
GIS DTM Type=
GIS DTM=
GIS Stream Layer=
GIS Cross Section Layer=
GIS Map Projection=
GIS Projection Zone=
GIS Datum=
GIS Vertical Datum=
GIS Data Extents=,,,

GIS Ratio Cuts To Invert=-1
GIS Limit At Bridges=0
Composite Channel Slope=5
