Flow Title=flow data
Program Version=5.07
Number of Profiles= 1 
Profile Names=PF 1
River Rch & RM=cocheco river,RiverCL         ,832.37  
     130
Boundary for River Rch & Prof#=cocheco river,RiverCL         , 1 
Up Type= 0 
Dn Type= 3 
Dn Slope=0.00029
DSS Import StartDate=
DSS Import StartTime=
DSS Import EndDate=
DSS Import EndTime=
DSS Import GetInterval= 0 
DSS Import Interval=
DSS Import GetPeak= 0 
DSS Import FillOption= 0 
