Geom Title=3610 17B Geometry data
Program Version=5.07
Viewing Rectangle= 579017.162105564 , 579475.947338087 , 4559222.35021083 , 4558705.42207712 

River Reach=mahwah river    ,RiverCL         
Reach XY= 21 
       579323.12      4559216.11       579340.93      4559190.28
       579363.75      4559156.23       579381.97      4559127.23
       579397.27      4559088.56       579426.64      4559032.36
        579432.7      4558993.25        579432.7      4558974.99
       579404.74      4558938.76       579364.34      4558925.15
       579324.48      4558916.82       579276.41      4558907.55
       579244.03      4558907.55       579204.45      4558888.17
       579176.15      4558874.63       579161.78      4558858.62
        579147.7      4558838.45        579111.7      4558797.08
       579090.16      4558777.01       579050.95      4558740.97
       579021.66      4558710.49
Rch Text X Y=579247.755,4559089.705
Reverse River Text= 0 

Type RM Length L Ch R = 1 ,718.46  ,109.9,109.9,109.9
XS GIS Cut Line=3
579112.2678857154558712.30997652579066.0739541994558754.86572824
579023.6262604484558793.97029148
Node Last Edited Time=Jun/24/2019 10:35:24
#Sta/Elev= 158 
       0  97.389    .639  97.381     .87  97.372   2.139  97.364   3.163  97.558
   3.642  97.578   4.871  97.406    5.37  97.395   6.696  97.426   7.106  97.449
   7.264  97.445    8.58  97.425   8.848  97.462   9.826  97.601  10.828    97.6
  11.051  97.589  11.272  97.594  12.446  97.591  12.618  97.572   14.31  97.613
  14.668  97.595  15.292  97.649  15.869  97.659  16.828  97.695  17.205  97.706
  17.559  97.696  18.409  97.665  19.303  97.662  19.686  97.662  20.822  97.679
  21.226  97.692  22.073  97.719  22.846   97.66  23.901  97.662  24.527  97.696
  24.859  97.666  26.522  97.601   27.23  97.583  28.215  97.554  28.874  97.593
  29.969   97.62  30.552  97.606   31.53  97.611  32.808   97.72  33.084   97.74
  33.236   97.75  35.252  97.681  35.277   97.68  35.283   97.68  36.653  97.779
   36.74  97.771  38.759   97.64  39.312  97.622  40.441  97.594   40.73  97.598
  42.153  97.654  42.574  97.673  43.928  97.764  44.296  97.749  44.584  97.793
  46.494  97.723  50.339  97.462  55.448  97.636  55.531  97.632    58.2  97.566
  62.808  97.358  66.317    97.2  69.746  97.143  70.152  97.214  70.214  97.235
  70.838  97.349  71.933  97.681  72.881  97.846  73.464  97.834  74.751  97.866
  75.289   97.83  76.388   97.83  76.824  97.844  78.216  97.858  78.407  97.845
    78.7  97.796  79.272  97.725  79.653  97.648  80.639  97.676  82.125  97.701
   82.44  97.649  83.436   97.53  84.207  97.571  85.342   97.51  85.711  97.511
  85.968  97.521  86.637   97.61  87.254  97.533  87.701  97.503  88.639  97.526
   89.44  97.533  90.008  97.527  90.158  97.537  90.326  97.549  90.703  97.582
  90.947  97.576  91.461  97.549  92.858  97.474  93.031  97.459  93.518  97.491
  94.085  97.547  94.279  97.511  94.709  97.471  94.829  97.464  94.902  97.471
  95.906  97.523  96.119  97.479  96.712  97.534  96.901   97.56  96.974  97.499
   97.09  97.479  97.825  97.506  98.505   97.43  98.521  97.432  98.706  97.403
   98.73  97.403  98.853  97.409  99.984  97.479 100.532  97.431 101.387  97.402
 101.442  97.407 101.681  97.412 102.003  97.478 102.498  97.555 102.817  97.433
 102.991  97.401 103.689  97.567 104.493  97.512 104.749  97.477 105.022    97.5
 105.054  97.489 105.272  97.505 105.939  97.641 106.584  97.509 106.733  97.473
 106.962  97.515 107.659  97.533   108.4  97.612 109.022  97.559 109.273    97.5
 110.449  97.351 112.185  97.325 113.108  97.206 114.666   97.32 114.817  97.284
 115.286  97.285 115.825   97.25  116.05  97.265 116.921  97.199 117.635  97.211
 118.313   97.23 120.011  97.227 120.523  97.279
#Mann= 3 , 0 , 0 
       0     .03       0       0     .03       0 120.523     .03       0
Bank Sta=0,120.523
XS Rating Curve= 0 ,0
XS HTab Starting El and Incr=97.143,0.04, 20 
XS HTab Horizontal Distribution= 5 , 5 , 5 
Exp/Cntr=0.3,0.1

Type RM Length L Ch R = 1 ,608.56  ,84.86,84.86,84.86
XS GIS Cut Line=3
579177.6989916254558804.80762539579143.0397843564558833.08535244
579095.9794853234558871.48087258
Node Last Edited Time=Jun/24/2019 10:35:24
#Sta/Elev= 106 
       0  99.114   2.044  99.003    7.49  98.793   9.074  98.771  16.104  98.375
  16.442  98.359  17.076  98.365   17.32  98.357  17.733  98.337  18.455  98.315
  19.047  98.308  19.655  98.331  20.331   98.35  20.804  98.356  21.465  98.362
   22.28  98.314  22.477  98.306  25.096   98.28  25.102   98.28  26.054  98.203
  26.785  98.232  27.939  98.182  29.174  98.225  30.994  98.294    31.6    98.3
  32.253  98.242  33.145  98.248  34.318  98.212  35.342  98.136  36.778  97.879
  38.197  97.597  38.842  97.428  40.064   96.97  44.731  96.962  45.071  96.961
  50.366  96.982  53.862   97.65  55.553  97.902  58.684  98.513  62.868  98.793
  63.168    98.8  63.425  98.792  63.871  98.809  67.088  98.814  67.132  98.809
  67.201  98.808  68.839  98.774  69.344  98.787   69.94   98.77  70.666  98.765
  71.286  98.779  71.919  98.768  73.008  98.785  73.112  98.794  73.214  98.789
  75.566  98.799  75.606    98.8  75.693  98.801  76.697  98.813  77.153  98.818
  77.857  98.841  78.492   98.83   79.07  98.802  79.712  98.857  80.227  98.849
  81.204  98.825  81.354  98.832  81.476  98.832  82.592  98.825  83.717  98.818
  83.823  98.816   84.19  98.825  85.497  98.832  86.194  98.826  86.767   98.85
   87.36  98.828  88.075   98.85  88.545  98.833  89.691  98.809  89.726   98.81
  89.762  98.812  91.036   98.88  92.287  98.852  92.349   98.85  92.494   98.85
  93.545  98.845  93.988  98.857  94.715   98.87   95.34  98.908  95.861  98.913
  96.465  98.919  97.024   98.92  98.156  98.931  98.203  98.928  98.239  98.926
  99.362  98.904 100.291  98.958 100.517  98.946 100.806  98.938 101.894  98.921
 102.335  98.912 103.177  98.892 103.899    98.9 104.395  98.907 104.979  98.954
 105.468  98.974
#Mann= 3 , 0 , 0 
       0     .03       0       0     .03       0 105.468     .03       0
Bank Sta=0,105.468
XS Rating Curve= 0 ,0
XS HTab Starting El and Incr=97.111,0.1, 20 
XS HTab Horizontal Distribution= 5 , 5 , 5 
Exp/Cntr=0.3,0.1

Type RM Length L Ch R = 1 ,523.7   ,113.92,113.92,113.92
XS GIS Cut Line=3
579232.1456974454558829.84772016579204.6955975064558888.28818996
579181.762413087 4558937.1122771
Node Last Edited Time=Jan/11/2021 18:50:25
#Sta/Elev= 101 
       0 101.424   1.096 101.362   1.447 101.342   1.466  101.34   1.522 101.342
   2.519 101.353   2.864 101.357   4.001 101.365    4.49 101.383   5.263 101.416
   5.983 101.368   6.555 101.337   7.528 101.344   8.024 101.323   8.973 101.326
  10.251  101.48  10.649 101.557  11.131 101.558  12.157 101.579  12.724 101.607
  13.402 101.614  13.633 101.661  14.636 101.687  14.931 101.699  16.079 101.713
  16.635 101.723  17.453 101.749  17.952 101.769  18.848 101.737  19.581 101.675
  20.333 101.635  20.955  101.62  21.269 101.605  21.604 101.504  21.806 101.506
  31.803  100.56  34.578 100.229  36.844  99.976  38.741  99.764  44.925  98.922
  48.497  98.587  61.157  97.426  64.566  97.365  68.188  97.301  68.626   97.31
   73.29  97.443  73.689  97.438  73.743  97.447  73.852  97.467  74.992  97.813
  76.381  98.178  76.585   98.29  77.879  98.654  77.931   98.66  79.184  98.754
   79.53  98.772   80.77  98.741  80.911  98.738  81.193   98.76  82.618  98.805
  83.318  98.828  83.929  98.829  85.367   98.85  85.648  98.856  85.834  98.863
  86.859  98.868  87.319  98.883   87.57   98.88  94.518  98.851  94.607  98.852
   94.69  98.852  94.983  98.844  96.179  98.821  96.305  98.821  98.049  98.883
  99.325  98.859  100.15  98.832 100.834  98.869 101.599  98.859 102.135  98.838
 103.421  98.866 103.923  98.876  104.13  98.877 105.127  98.845 106.481  98.867
 106.979  98.882 107.477  98.884 108.197  98.887 108.878  98.879 109.997  98.873
 111.254  98.852 111.318  98.851 111.465  98.853 113.139   98.89 113.659  98.882
 114.473   98.87 115.091  98.863 116.188  98.902 116.502   98.89 117.588  98.838
 118.508   98.83
#Mann= 3 , 0 , 0 
       0    .003       0       0    .003       0 118.508    .003       0
Bank Sta=0,118.508
XS Rating Curve= 0 ,0
XS HTab Starting El and Incr=97.451,0.22, 20 
XS HTab Horizontal Distribution= 5 , 5 , 5 
Exp/Cntr=0.3,0.1

Type RM Length L Ch R = 1 ,409.78  ,66.27,66.27,66.27
XS GIS Cut Line=3
579323.9231517544558855.64303683579313.477281242 4558914.6949785
579299.3056737574558994.80902334
Node Last Edited Time=Jun/24/2019 10:35:24
#Sta/Elev= 126 
       0 102.868   3.042 102.838   3.074 102.839   3.785 102.817    5.24 102.794
   5.914 102.744   5.961 102.739   6.013 102.733   6.071 102.729   6.138 102.729
   7.462 102.593  23.448  101.19  51.735  97.986  52.845  97.793  54.405  97.774
  55.296  97.684  55.827  97.583  58.804  97.726  59.216  97.628  59.613  97.557
  59.969  97.556  60.806  97.552  61.601  97.537  61.955  97.551  63.125  97.495
  63.406  97.485  63.563  97.482  64.804    97.5  65.878  97.566  66.269  97.575
  66.507   97.61  68.238  97.794  70.202  97.845  70.386  97.857  70.467  97.854
  70.676  97.864  71.892  97.882  72.975   97.87  73.332  97.874   73.85  97.936
  74.669  98.002  75.304  97.997  76.138  98.003  77.382  98.105  77.496  98.121
  77.573   98.12  78.924  98.086   79.73  98.076  80.375  98.075  81.791  98.089
  81.862  98.087  83.302  98.021  84.215   98.06  84.668  98.011   86.07  97.958
  86.195  97.961  86.407  97.954    87.6  97.954  88.296   97.95  89.749  97.913
  90.465  97.894  91.427  97.847  91.818  97.872  92.588  97.956  93.321  97.945
   93.84  97.994  94.672  97.949  95.801  98.032  96.102  98.027  96.941   98.04
  97.523  98.031  97.771  98.053   98.99  98.065  99.386  98.052 100.469  98.013
 100.873  98.021 101.851  98.036  103.24  97.991 103.351  97.988 103.431  97.984
 104.752  97.999 105.352  97.995 106.163  97.929 107.285  98.008 108.979  98.067
  110.19  98.114 111.398  98.144 111.666   98.15 111.797  98.146 112.026   98.13
 112.595  98.119 114.652  98.042 115.043  98.037 116.119  97.981 116.167  97.981
 117.129  97.977  118.49  98.053 119.266  98.048 120.458  97.914 120.637  97.916
 121.845  98.034 122.446  98.125 123.275  98.101 123.588  98.081 124.564  98.265
 126.051  98.494 127.525   98.41  127.53   98.41 127.536  98.411 127.637  98.425
 128.865  98.597 128.923  98.598 131.771  98.554 132.771  98.506 133.253  98.494
 133.469  98.489 134.588  98.475 135.947  98.457 136.386   98.46 137.686  98.509
 137.833  98.505 139.027  98.473 139.641  98.453 140.411  98.386 141.254  98.454
 141.327  98.456
#Mann= 3 , 0 , 0 
       0     .03       0       0     .03       0 141.327     .03       0
Bank Sta=0,141.327
XS Rating Curve= 0 ,0
XS HTab Starting El and Incr=97.632,0.26, 20 
XS HTab Horizontal Distribution= 5 , 5 , 5 
Exp/Cntr=0.3,0.1

Type RM Length L Ch R = 1 ,343.51  ,50.22,50.22,50.22
XS GIS Cut Line=3
579409.1367581214558854.47550837 579377.933795184558929.72470639
 579358.750943654558975.98615265
Node Last Edited Time=Jun/24/2019 10:35:24
#Sta/Elev= 92 
       0 100.872    .197 100.871   7.102  100.85   9.275 100.811  10.661 100.808
  11.106 100.801  11.875 100.751  12.699  100.71  13.223 100.702  14.051 100.616
  14.604 100.587   15.71 100.589  16.005 100.585  17.009 100.592  17.334  100.58
    18.7 100.483  20.152 100.287  30.246  98.882   30.53  98.841  30.906  98.741
  31.159  98.711  35.343  98.669  41.663  98.684  48.382  98.702  51.266   98.67
  54.897  98.699  55.041  98.699  75.491  98.178  78.244  98.166  81.462  97.971
  84.506  97.787  84.707  97.778  84.807  97.784  87.388  97.677  87.642  97.637
   89.23  97.659  89.302  97.661  89.309  97.662  89.317   97.66  89.394  97.669
  91.744  97.745  92.388  98.036  93.135  98.008  94.611  98.051  95.216  98.017
  95.446  98.052  95.911  98.104  96.784  98.262  97.825  98.352  99.441  98.397
  99.899  98.392 100.142  98.361 101.364  98.253 103.533   98.33 104.083   98.33
 104.359  98.292 105.158  98.233 105.932  98.185 106.141  98.162 107.367  98.196
 107.775  98.196 108.793  98.187 109.079    98.2 110.472  98.245 111.569  98.242
 111.814  98.249 112.031  98.245 113.519  98.221 114.371  98.181 114.874  98.192
   115.4  98.203 116.469  98.264 117.406  98.348 117.917  98.376 118.462  98.369
 119.443  98.361 120.077  98.378 120.905  98.408  122.18  98.368 122.411  98.374
  123.42   98.46 125.258  98.382 125.367  98.381 125.413  98.386 125.549  98.383
 126.843  98.396 127.874  98.429 128.489  98.404 129.163  98.366 129.859  98.256
 130.851  98.107 131.543      98
#Mann= 3 , 0 , 0 
       0     .03       0       0     .03       0 131.543     .03       0
Bank Sta=0,131.543
XS Rating Curve= 0 ,0
XS HTab Starting El and Incr=97.787,0.15, 21 
XS HTab Horizontal Distribution= 5 , 5 , 5 
Exp/Cntr=0.3,0.1

Type RM Length L Ch R = 1 ,293.29  ,49.06,49.06,49.06
XS GIS Cut Line=3
579450.5190641634558937.22622482579418.1363708934558956.11204354
579396.4880483424558968.73750035
Node Last Edited Time=Jun/24/2019 10:35:24
#Sta/Elev= 59 
       0 101.735     .25 101.747    .876 101.708   1.811 101.691   2.654  101.71
   3.302 101.729   4.021 101.721    4.92 101.684   6.251 101.637   6.556 101.628
   6.766 101.624   7.888  101.61   9.034 101.552   9.213 101.541   9.472 101.528
  10.339 101.476  11.244 101.413  11.425 101.407  11.596 101.398   12.85 101.409
  13.101 101.414   13.43 101.365  14.022  101.36  14.559 101.343  26.621  99.711
  36.898  97.863  37.162  97.764  37.488  97.804  38.132  97.883  38.198   97.89
  38.283  97.885  39.788  97.672  41.407  97.689  41.427   97.69  42.376  97.712
  43.408  97.802  44.978  98.143  46.025  98.254  46.717  98.403  47.575  98.488
  49.183  98.447  49.309  98.445   49.73  98.445  50.902  98.473  51.885  98.491
  52.518  98.494   53.86  98.437  54.171  98.419  54.321  98.405  55.779  98.296
  57.142  98.271  57.361  98.259  59.606  98.242  60.005  98.247  60.215  98.249
  60.902  98.235  61.667  98.223   62.35  98.206  62.548  98.191
#Mann= 3 , 0 , 0 
       0     .03       0       0     .03       0  62.548     .03       0
Bank Sta=0,62.548
XS Rating Curve= 0 ,0
XS HTab Starting El and Incr=97.822,0.2, 20 
XS HTab Horizontal Distribution= 5 , 5 , 5 
Exp/Cntr=0.3,0.1

Type RM Length L Ch R = 1 ,244.23  ,40.29,40.29,40.29
XS GIS Cut Line=3
 579471.449443654559005.87355265579431.6353338984559000.12846289
579399.1799859324558995.44522651
Node Last Edited Time=Jun/24/2019 10:35:24
#Sta/Elev= 71 
       0     102    .683 101.955   1.486 101.801   2.269 101.756   5.006 101.973
   5.158  101.99   5.358  101.99   6.562 102.089   6.984 102.189    8.74 102.563
   9.882  102.57  10.472 102.579  11.615  102.66  13.372 102.668  13.594 102.666
  14.173 102.628  15.052 102.567  15.089  102.57  15.972 102.531  16.379 102.533
  17.645  102.51  18.107 102.499  30.981  99.313  33.319  98.931  37.222  97.889
  37.357  97.902  38.379  97.801  38.563  97.771  38.795  97.777  40.082  97.737
  40.226   97.73  40.511  97.716  41.603  97.706   42.22   97.72  43.117  97.725
  43.926  97.751  44.634  97.778  45.204  97.763  45.901  97.739  46.507   97.86
  47.365  97.742  47.688  97.742  47.749  97.741   53.29  98.235  54.636  98.381
  55.052  98.392  55.791  98.425  56.483  98.415  57.444   98.44  57.917  98.444
  59.101  98.471  59.349  98.484  60.746  98.381  60.771  98.381   60.94  98.393
   62.28  98.479   63.52  98.437  63.897  98.471  64.174  98.455   65.34   98.49
  65.896  98.511   66.87   98.53  67.621   98.51  68.405  98.562   69.35  98.644
   69.93  98.593  71.068  98.463  71.455  98.461  72.807  98.518  72.992  98.535
  73.018  98.536
#Mann= 3 , 0 , 0 
       0     .03       0       0     .03       0  73.018     .03       0
Bank Sta=0,73.018
XS Rating Curve= 0 ,0
XS HTab Starting El and Incr=97.856,0.24, 20 
XS HTab Horizontal Distribution= 5 , 5 , 5 
Exp/Cntr=0.3,0.1

Type RM Length L Ch R = 1 ,203.94  ,39.26,39.26,39.26
XS GIS Cut Line=3
579460.5196103174559057.29281932579423.0826322064559039.15940904
579381.8740452514559019.19913843
Node Last Edited Time=Jan/11/2021 18:40:50
#Sta/Elev= 82 
       0     102    .877 101.985   1.857 101.936    2.22 101.915   2.467 101.915
   3.776 101.894   5.073 101.808    5.33 101.806   5.704 101.785   6.907 101.744
   8.289 101.714   8.506 101.711   8.697   101.7   9.843 101.636  10.506  101.63
  11.155 101.636  12.254 101.579  12.492 101.576  12.739 101.583  14.005 101.609
  14.414 101.606  15.317  101.54  16.588 101.508  17.363 101.477   21.82 101.062
  25.775 100.487  34.613  99.407  41.597  98.534  44.435   98.18   45.77  97.992
  45.785  97.984  46.834  97.808  47.451  97.892  47.931  97.954  48.813  97.924
  49.035  97.916  49.149  97.919   50.18   97.91  50.873  97.928  52.957  98.094
  54.427  98.193  54.604  98.165  55.762   98.06  56.787  98.106  58.635   98.13
  62.024  98.395  62.738  98.458  63.053  98.528  63.851   98.61  64.654  98.711
  65.697  98.785  66.365  98.794  67.251  98.688  68.355  98.788  69.709  98.881
  70.263  98.866  71.035  98.875  72.276  98.909  72.366  98.907   72.54  98.901
  73.644   98.84  74.458  98.802  74.915  98.774  75.532  98.721  76.135  98.671
  76.413  98.676  77.164  98.699  78.039  98.748  78.516  98.727   79.31  98.717
  79.857  98.686  80.487  98.685  81.522  98.657  82.405   98.58  82.956  98.529
  83.223  98.547  84.132  98.524  84.958  98.518  86.003  98.485   86.59  98.423
  87.088  98.437  87.386  98.425
#Mann= 3 , 0 , 0 
       0     .01       0       0     .01       0  87.386     .01       0
Bank Sta=0,87.386
XS Rating Curve= 0 ,0
XS HTab Starting El and Incr=97.958,0.2, 20 
XS HTab Horizontal Distribution= 5 , 5 , 5 
Exp/Cntr=0.3,0.1

Type RM Length L Ch R = 1 ,164.68  ,45.13,45.13,45.13
XS GIS Cut Line=3
 579445.802943654559096.62815265579404.9043257844559073.95529089
579372.6408471974559056.06946912
Node Last Edited Time=Jan/11/2021 18:36:17
#Sta/Elev= 110 
       0     102   1.341 101.991   3.113  101.65   4.208 101.085   5.247 100.812
    5.98 100.631   6.416 100.563   7.252 100.483   7.771 100.439   8.326 100.406
   9.193 100.353   9.793 100.348  10.578 100.339   11.06 100.323  11.876 100.295
  13.155  100.24  13.166  100.24  13.185 100.239  14.694 100.212    15.8 100.206
  16.262  100.19  16.736 100.171  17.897 100.107  19.022 100.059  19.455 100.045
  19.873 100.013  20.844   99.95  21.866  99.898  22.219  99.887  22.487  99.882
  23.574  99.867  24.896   99.86  24.925  99.859  24.963  99.857  26.432  99.745
  27.711  99.708  27.923  99.704  28.073  99.693  29.298  99.619  30.432  99.675
  30.661  99.672  30.977  99.631  32.046  99.469  33.294  99.325  33.452  99.311
   33.59  99.301  34.819  99.242  35.676  99.207  36.175  99.189  36.872  99.215
  37.575  99.238  38.272   99.26  39.012   99.27  40.198  99.047  40.474  99.044
  41.146  99.027  41.909  98.989  42.955  98.612  43.346  98.444  43.891  98.489
  44.902   98.62  45.604  98.593  46.728  98.512  46.763  98.504   47.59  98.304
  48.876  98.272  48.905   98.27  48.949   98.27  50.487  98.231   51.14  98.216
  52.416  98.222  54.069   98.28  55.373  98.403  56.193  98.363   56.72  98.474
  57.526  98.605  59.003  98.774  61.526  98.735  61.876   98.72  63.194  98.768
  63.527  98.782  63.768  98.787   65.05  98.814  66.214  98.791  66.518  98.782
   66.65  98.772   66.89  98.782  67.995  98.778  69.219  98.654  69.431  98.624
  69.625  98.618  70.933  98.499  72.097  98.571  72.434  98.585   72.81  98.605
  73.487  98.665  73.897  98.682   74.97   98.64  75.237  98.635  75.486  98.653
  76.737  98.775  77.382  98.761  78.808  98.699  79.615  98.655  80.305  98.651
    80.9  98.688    81.6   98.66  82.288  98.666  83.101  98.765  83.652    98.8
#Mann= 3 , 0 , 0 
       0     .02       0       0     .02       0  83.652     .02       0
Bank Sta=0,83.652
XS Rating Curve= 0 ,0
XS HTab Starting El and Incr=98.366,0.18, 20 
XS HTab Horizontal Distribution= 5 , 5 , 5 
Exp/Cntr=0.3,0.1

Type RM Length L Ch R = 1 ,119.55  ,47.61,47.61,47.61
XS GIS Cut Line=3
579429.1563320664559134.91437046579386.7287983714559115.20183863
579346.859982517 4559096.6781293
Node Last Edited Time=Jan/11/2021 18:32:12
#Sta/Elev= 112 
       0 100.364    .847  100.38    1.96 100.379   4.486 100.385     5.6 100.315
   6.093 100.286   6.659 100.276   7.304 100.251   8.052 100.199  14.376 100.104
  14.704 100.099  15.121 100.132   18.89 100.004  19.547   99.97  19.799  99.968
  21.788 100.054  21.887 100.055  21.923 100.054  21.999 100.042    22.8  99.978
  25.492  99.749  26.675  99.836  27.478  99.703  27.967  99.637  28.906  99.591
  29.228  99.597  29.406  99.572  30.368  99.617  31.181  99.661  32.095   99.64
  32.718  99.612  33.075   99.63  34.005  99.658  35.094  99.698  35.293  99.688
  35.638  99.692  37.392   99.58  38.109  99.612   38.41  99.596  40.681  99.501
  41.527  99.138   42.53  98.832  42.598  98.819  44.204  98.355  44.765   98.33
   45.87  98.281    45.9   98.28  45.917   98.28  46.783  98.276  47.229  98.274
  48.019  98.252  48.546  98.243  49.449  98.261    49.8  98.273  49.984  98.277
  50.902  98.337  51.672  98.422  52.014  98.514  53.478  98.817  54.061  98.827
  55.236  98.889  55.579  98.916  56.335  98.885   56.74  98.871  56.952  98.878
  57.621  98.906  58.587  98.956  58.945  98.968  59.557  98.887  60.134  98.833
  60.451  98.837  61.432   98.88   62.46  98.892  62.731  98.894  63.223  98.909
  64.051  98.938  64.599  98.882   66.58  98.881   66.74  98.889   66.86  98.882
  68.329  98.842  69.675  98.873   69.92  98.861  70.235  98.852  71.126  98.809
  71.578  98.788  72.241  98.804  73.254   98.72  73.364  98.716  73.581  98.726
  74.628  98.781   75.28  98.755  75.921  98.726  76.967  98.744  77.219  98.765
  77.368  98.762  79.118  98.868  79.928  98.921  80.604  98.935  81.192  98.929
  81.376   98.94  81.608  98.954  82.786  98.933  83.386  98.937  83.552  98.943
  83.837  98.952  84.839  99.029  85.085  99.024  86.234  99.013  88.379  99.027
  88.836  98.972  90.745  98.942
#Mann= 3 , 0 , 0 
       0     .05       0       0     .05       0  90.745     .05       0
Bank Sta=0,90.745
XS Rating Curve= 0 ,0
XS HTab Starting El and Incr=98.393,0.1, 20 
XS HTab Horizontal Distribution= 5 , 5 , 5 
Exp/Cntr=0.3,0.1

Type RM Length L Ch R = 1 ,71.94   ,35.81,35.81,35.81
XS GIS Cut Line=3
579408.3824387014559185.49652788579363.5101772394559156.58081272
579331.8136216164559136.15553118
Node Last Edited Time=Jun/24/2019 10:35:24
#Sta/Elev= 36 
       0 100.542   4.182 100.458   4.351  100.45   7.934 100.502   8.051 100.505
    8.16 100.503   8.643 100.489  10.656  100.44  11.195 100.428  14.205 100.319
  24.517 100.296  25.001  100.29  25.365 100.282  25.671 100.281  25.882  100.28
  29.372 100.182  30.242 100.176   33.93 100.085  37.081  99.747  47.857  98.689
  47.894  98.686  47.951  98.679  47.957  98.679  48.305   98.63  50.253  98.356
   50.58   98.33  53.382  98.306  59.897  98.252  61.072   98.33  61.082  98.331
  61.101  98.333  63.157  98.691  75.633  98.912  81.149  98.952  82.504  98.973
   91.09     100
#Mann= 3 , 0 , 0 
       0     .03       0       0     .03       0   91.09     .03       0
Bank Sta=0,91.09
XS Rating Curve= 0 ,0
XS HTab Starting El and Incr=98.402,0.11, 20 
XS HTab Horizontal Distribution= 5 , 5 , 5 
Exp/Cntr=0.3,0.1

Type RM Length L Ch R = 1 ,36.13   ,,,
XS GIS Cut Line=3
579390.6101579784559217.28228795579343.5746185384559186.33641604
 579290.898629154559151.67954935
Node Last Edited Time=Jan/11/2021 18:17:37
#Sta/Elev= 73 
       0 100.629   1.248 100.502   1.726 100.452   1.926 100.439   3.083 100.391
   4.321 100.369   4.412 100.367   4.642 100.348   6.197 100.245   6.817 100.221
   7.715 100.256   9.046 100.174   9.106 100.171   9.146 100.175  10.864 100.286
  11.252 100.262  13.137  100.23  13.562  100.22  14.691 100.162  15.702 100.166
   16.68 100.173   16.79 100.169  18.106 100.144   19.31 100.087  19.553  100.08
  20.035 100.066   21.27 100.037  21.894 100.056  22.664 100.109  23.138   100.1
  24.989 100.077  25.355 100.092  25.981 100.074  26.779 100.063  27.881 100.048
  28.409  99.939  29.514  99.926  29.744  99.924  29.937  99.923  30.901  99.962
   32.05  99.998  32.082  99.999  33.229  99.992   34.24 100.021  34.391 100.018
  34.567 100.018  35.839  99.979  37.028  99.958  37.296  99.958  37.594  99.948
  38.592  99.936  38.899  99.922   40.18  99.927  40.886  99.949  41.874  99.879
  43.105  99.785  43.884  99.796  55.073  98.639  55.146  98.633   55.18   98.63
   55.19   98.63  56.303  98.532  56.607  98.506  57.348  98.339  59.343  98.295
  61.923   98.36  62.621  98.411  67.183  98.465  67.676  98.473  74.109  98.766
  85.629  99.288   96.62  99.764 119.357 100.716
#Mann= 3 , 0 , 0 
       0     .04       0       0     .04       0 119.357     .04       0
Bank Sta=0,119.357
XS Rating Curve= 0 ,0
XS HTab Starting El and Incr=98.445,0.11, 21 
XS HTab Horizontal Distribution= 5 , 5 , 5 
Exp/Cntr=0.3,0.1

LCMann Time=Dec/30/1899 00:00:00
LCMann Region Time=Dec/30/1899 00:00:00
LCMann Table=0
Chan Stop Cuts=-1 



Use User Specified Reach Order=0
GIS Units=Meters
GIS DTM Type=
GIS DTM=
GIS Stream Layer=
GIS Cross Section Layer=
GIS Map Projection=
GIS Projection Zone=
GIS Datum=
GIS Vertical Datum=
GIS Data Extents=,,,

GIS Ratio Cuts To Invert=-1
GIS Limit At Bridges=0
Composite Channel Slope=5
