Geom Title=Site 992 Geometry Data
Program Version=5.07
Viewing Rectangle= 499769.485524666 , 501389.512373362 , 211850.4683 , 210296.1617 

River Reach=stevens creek   ,RiverCL         
Reach XY= 52 
       501287.01       211835.23       501287.01       211812.73
       501287.01       211787.77        501296.7       211743.81
       501305.08       211705.77       501299.56       211657.13
       501286.63       211630.81       501264.81       211594.82
       501241.83       211562.28       501222.16       211541.61
       501200.14       211510.99       501172.12       211491.37
       501132.97       211473.83       501076.95       211462.58
       501017.81       211447.03       500957.16       211426.85
       500921.25       211411.78       500864.21       211383.74
       500804.35       211365.32       500771.79        211351.2
       500714.02       211325.77       500588.97       211236.39
       500544.44       211206.49       500519.97       211183.94
       500470.41       211151.65        500431.3       211126.21
       500375.51       211111.62       500295.79       211092.24
        500253.8       211073.96       500213.58       211054.83
        500155.4       211044.06       500103.87       211023.87
       500067.72       211004.73       500037.56       210977.94
       500019.12       210945.16       500012.89       210909.65
       500012.89       210875.19       500020.55        210829.9
       500020.55       210793.41       500025.58         210769.
       500020.31       210746.75       500027.88       210716.06
       500027.88       210661.86       500019.06       210605.03
       500019.06       210569.39       500010.49       210543.52
       500010.49       210448.83        500005.6       210421.36
        500002.7        210393.6       499999.25       210369.79
       499987.42       210338.86       499987.42        210311.4
Rch Text X Y=500962.1125,211454.2725
Reverse River Text=-1 

Type RM Length L Ch R = 1 ,2257.55 ,131.96,131.96,131.96
XS GIS Cut Line=3
 499785.36814083210384.357841152500001.359679734 210384.35455919
500207.486651922210384.351427118
Node Last Edited Time=Jun/13/2019 13:23:39
#Sta/Elev= 490 
       0  73.462.4429932  73.4061.465973  73.3892.138977  73.2043.548981  72.895
 4.14798  72.7315.134003  72.569 6.42099  72.2936.884003  72.2357.544983  72.072
7.843994  72.0629.414978  71.883  10.715  71.581  11.491  71.46412.80698  71.177
13.33099  71.10413.96399  70.929  14.327  70.916  14.944  70.80815.15997  70.729
17.21399  70.37518.26398  70.221  18.651  70.202   19.56    70.120.52298  69.941
21.15198  69.795  22.629  69.37923.05698  69.293  23.957   69.28   24.56  69.174
26.21899  69.01127.41199  68.90928.18597  68.794   29.19  68.574  29.849  68.378
30.68198   68.24  31.767  68.14132.36499  68.061   33.72  67.75834.05698  67.741
35.21597  67.54736.66998  67.44437.58899  67.251  38.431  67.02139.11099  66.953
  39.698  66.79540.89899  66.65442.33899   66.44  43.634   66.34  43.892  66.438
44.25598  66.38444.72897  66.235   45.34   66.1446.29199  66.03848.46198  65.753
49.70599  65.62150.82898  65.42151.26797  65.413  52.047  65.31853.78098  65.294
54.76099  65.18955.83398  65.02456.40799   65.0356.73599  64.959  58.582  64.849
59.50098  64.76260.67099  64.744  62.315  64.74463.15598  64.698   64.25  64.681
65.41699  64.61466.77798  64.57767.98199   64.4768.51398  64.37269.26498  64.118
69.98798  63.803      71   63.7471.42798  63.76372.72498  63.71873.13898  63.946
  74.254  63.58474.76898  63.73875.37997  63.803   75.78  63.56776.03497  63.479
  76.616  63.12577.02399  62.82277.77499  61.91278.06699  61.829  78.517   61.96
  79.452  61.70879.76498  61.668  81.655  61.71482.45999  61.59983.54898  62.562
  84.871  63.349  85.552   63.96  87.552  63.87788.17599  63.72889.90799  63.149
94.18198   62.06   94.62  62.044  95.108  61.89195.62198  61.857  96.388  61.919
97.45898  61.86997.71698  61.833  97.935  62.10599.58499  64.817  100.16  64.794
 100.564   64.63 101.016  64.804 101.436  64.601 102.236   65.09 103.544  64.949
 104.196  64.908 105.409  65.011 105.943  64.958 106.316  64.878 107.039  64.798
 108.629  64.961 109.411  64.876 109.582  64.931 111.013  64.778 111.861  64.884
 112.233  64.879 112.939  64.933 114.042  64.829  114.95  64.851 115.528  64.835
 116.167  64.955 116.727  64.878   117.6  64.853 118.806  64.994 119.004  64.964
 119.789  65.028 119.903  65.008 121.006  65.149 121.905  65.098 122.291  65.204
 123.667  65.357 125.343  65.273  126.04  65.295 127.073  65.491 127.645  65.487
 128.985  65.643 129.684   65.75 130.181  65.724 130.761  65.818  131.68  65.921
  132.11  65.897 132.741  66.079 133.681  66.209 134.316    66.4 135.085  66.369
 135.984  66.515 136.142  66.468 137.247    66.8  137.71  66.775 138.059  66.856
 138.888  66.988 139.623  67.133 140.902  67.248 142.773  67.626 143.725  67.712
 144.197  67.726 145.404  67.894 145.849  67.896 146.231  67.949 146.909  67.917
  148.08  67.969 148.181  67.948 149.842   67.99 150.072  68.026 150.704  67.967
 151.212  67.994 151.837  67.966 152.294  67.982 152.998  67.946 153.467  68.041
 154.325  68.015 154.801  68.044 156.124  68.081 157.849   68.08 159.591   68.31
 160.782  68.249 162.392   68.22 162.864  68.227 165.477  66.656 166.379  66.199
 166.964  65.995 167.677  65.707 168.506  65.485 169.472  65.497 170.938  65.401
 171.854   65.32 172.585  65.132 173.481  65.188  173.95  65.156 174.176   65.07
 175.635  64.996 176.199  64.883 177.221  64.903 178.321  64.703 179.151  64.474
 179.255  64.477 180.992  63.585  181.81  63.191 182.335   63.13 183.078  63.113
 184.373  63.213 185.086   63.22 185.495  63.142 202.581  60.038 202.737  59.975
 203.812  59.988 205.162  59.961 206.819  59.965  209.29  59.986 210.202  59.943
 211.256  59.966 212.514  59.954 215.125  59.949 216.131  59.966 217.035  59.958
 218.583  59.974 222.006  59.966 222.738  59.949 224.059   59.98 225.926  59.963
 227.904   60.15 228.281  60.448 234.017  65.321 234.715  65.893 235.739  65.894
 237.014  66.053 237.616  66.154 238.497  66.184 239.274    66.6 239.665  66.632
 239.678  66.741 240.281  66.661  240.77  66.684 241.461  66.662 241.977  66.819
 242.144  66.805 242.282  66.967 242.914  66.788 242.941  66.599 243.072  66.694
 243.409  66.598 244.589   66.66 244.803  66.773 245.138   66.64 245.823   66.63
 246.163  66.547 247.079  66.771 248.575  66.563 248.617  66.616 249.313   66.55
 249.701  66.626  250.73  66.482 251.477  66.512  251.57  66.602  252.15  66.905
 252.349  66.896 253.788  66.561 254.502  66.738 254.703  66.703 255.431  66.426
 256.004  66.423 256.759  66.575 257.991  66.527 258.991  66.654 260.426  66.308
 261.188  66.382 261.414  66.529 262.303  66.386 263.315  66.376 263.934   66.46
 264.495  66.291 265.068  66.261 265.521  66.357 266.656  66.116 267.031  66.057
  267.55  66.163 268.044  66.011 268.522   65.99 269.135  66.131 269.511  66.277
 270.752  65.926 271.647  65.788 272.312    65.5  273.06  65.497 273.459  65.399
  274.21  65.426 274.507  65.478  280.79  62.425 281.651  62.027 283.014  61.609
  284.13  61.855 284.494  61.801 284.542  61.874 288.715  64.903 289.374  64.951
 289.591  65.126 290.304  65.095 290.698   65.21 291.375  65.567 291.557  65.629
 292.521  65.658 292.672  65.715 293.066  65.626 293.859  65.652  294.42  65.605
 295.337  65.751 295.709  65.962 296.289  65.947 296.404  66.137 297.248  66.098
 297.616  66.237 298.098  66.285 298.707  66.296 299.816  66.606 300.378  66.608
 300.671  66.572 302.349  66.858 303.031  66.871 303.955  67.046 304.682  67.001
   305.4  67.189 306.066  67.616 306.454  67.715 307.325  67.754 308.559  68.176
  309.37  68.253  310.29  68.599 310.926   68.55 311.146  68.667 311.601  68.651
 311.766  68.882 312.719  68.952 313.962  69.141 314.181  69.432 314.447  69.421
 314.702  69.324 315.724  69.546 315.845  69.756 316.155  69.759 316.625  69.868
 316.941  70.048 317.811  70.411 317.943  70.513 318.351  70.398 318.885   70.45
 319.674  70.776 320.016  70.834 320.166  70.731 320.721  70.834 321.047  70.999
 321.716  71.216 321.949  71.123 322.881  71.236 323.933   71.57 324.864  71.592
 325.263  71.684 325.485  71.813 325.997  71.812 326.552  71.909 327.053  72.073
 327.479  72.274 327.716  72.282 328.055  72.381 328.689  72.307 329.733  72.437
 330.292  72.552  330.71  72.573 331.458    72.7 332.304  72.874  332.56  72.878
 333.169  73.004 333.437  72.947  334.39  73.054 334.992  73.253 335.087  73.176
 335.801  73.099 336.243  73.153 337.007   73.15 337.709  73.412 338.802  73.434
 338.827  73.372  339.34  73.384  340.04  73.351 340.368  73.434 340.817  73.441
 342.301  73.512 342.998  73.632 343.619  73.703 343.785  73.667 344.652   73.71
 345.757  73.732 346.444   73.78 347.086   74.18 347.395  74.205 347.937  74.169
 348.446  73.942  348.72  73.913 349.122   73.79 349.895  73.696 351.119  73.778
 351.755   73.73 352.332  73.791 352.752   73.69 353.018  73.746 354.091  73.661
 354.702  73.651 356.165  73.681  356.67  73.717 356.968  73.683 357.333  73.731
 358.421  73.663 359.297  73.672 359.684  73.715 360.554  73.527 361.554  73.531
 362.134  73.585 363.214  73.513 363.711  73.501 364.679  73.533 366.244  73.553
 366.448  73.367 368.001  73.155 369.002  73.404 370.049  73.478 370.593  73.441
 370.985  73.512 372.236  73.492 372.562  73.469 373.594  73.315 374.151  73.139
 374.705  73.125 375.259  73.313 375.663  73.369 376.186   73.39 378.029  73.614
 378.628  73.629 379.781  73.562 380.479  73.545 380.828    73.5 381.273  73.346
 381.736  73.347 382.727  73.182 383.297  73.353 383.507  73.283 383.641  73.366
 384.341  73.419 385.775  73.643 387.284  73.155 387.701  73.148 388.282  73.655
 388.383  73.551  389.34  73.888 389.972  73.897 390.636   73.95 390.897  73.804
 391.788  73.749  391.81  73.788 392.771   73.29 393.079  73.196  393.82  73.085
 394.888  73.716 395.787  74.018 396.215  74.059 396.975  73.991 397.795  73.712
   398.1  73.273 398.699  73.029 399.761  73.113 400.058  73.215 400.967  73.162
 402.056  72.942 402.227  73.123 402.405  73.089 402.651  73.167 406.008  73.252
 406.522  73.314  412.45  73.406 414.298  73.369 421.093   73.85 422.119      74
#Mann= 3 , 0 , 0 
       0     .03       0       0     .03       0 422.119     .03       0
Bank Sta=0,422.119
XS Rating Curve= 0 ,0
XS HTab Starting El and Incr=60.093,0.3, 47 
XS HTab Horizontal Distribution= 5 , 5 , 5 
Exp/Cntr=0.3,0.1

Type RM Length L Ch R = 1 ,2125.59 ,121.2,121.2,121.2
XS GIS Cut Line=3
   499821.122434 210515.63549994500010.493679873 210515.63549994
500224.249481773 210515.63549994
Node Last Edited Time=Jun/13/2019 13:25:04
#Sta/Elev= 490 
       0  65.354.9189758  65.8631.427979  66.221   2.056  66.2882.463989  66.309
3.136993  66.3155.350983  66.2785.852997  66.3066.164001  66.2946.651978  66.314
7.294983  66.2678.069977  66.2838.852997  66.25110.07898  66.22910.96899  66.301
  11.884  66.35612.31198  66.35113.44998  66.50313.80899  66.56714.42099   66.64
15.64798  66.68816.08298  66.66916.74399  66.72617.10199  66.71617.46399  66.813
   17.81  66.80419.32401  66.82419.67099   66.8620.71799  66.88221.15698  66.945
  21.884  67.08722.63599   67.18  23.259  67.27923.97598  67.30224.38098  67.296
  25.526  67.37925.79498  67.388  27.189  67.529  28.069  67.69928.69598   67.94
  28.922  68.00429.59299  68.30230.76999  68.77831.35199  68.94132.40198  69.118
33.04498  69.29133.85498  69.43934.27698  69.54435.07199  69.68936.31198  69.958
36.82599  70.096  37.504  70.25238.79099  70.503  39.375  70.754  40.255  70.938
40.74899  71.066  41.375  71.297  41.935  71.479   43.19   71.81   43.62  71.959
43.73398  71.95244.52698  72.17846.83499  72.535   50.78  73.515  50.948  73.541
51.65799  73.73352.55798  73.87952.98099  73.962  53.056  73.92854.43799  74.266
55.19299  74.388   55.59  74.51555.85599  74.52557.28598  74.745  57.612  74.786
  58.086  74.80458.20798  74.844   59.19  75.07459.84698  75.18260.61099  75.278
61.85498  75.309  62.918  75.38263.37598   75.51   64.78  75.57165.71899  75.634
   66.44  75.77466.58499  75.75267.88599  75.833  68.647  75.97969.26498  75.987
70.15399  76.08470.56299  76.08172.23199  76.21672.54599  76.127  73.383  76.131
74.66599  76.22874.83701  76.23174.95898  76.157  75.892  76.16877.20798   76.35
  78.306  76.26778.91898  76.26679.04898  76.298  79.953  76.26380.91998  76.245
   81.44  76.31782.42899   76.2583.16998  76.259  84.461  76.23884.96799  76.205
   86.41  76.16187.39301  76.146  87.802  76.11489.23798  76.04189.75998  75.986
90.45099   75.9790.71201  75.92491.05698  75.93791.30899   76.0292.08798  75.974
   92.44  75.885  93.255  75.854  95.884  75.722  96.758  75.703  97.797  75.717
  98.715  75.64998.95099  75.649  99.491  75.599 101.307  75.356 102.282   75.19
 103.283  75.042 104.549  74.748 104.698  74.735 105.054  74.575 105.378  74.475
 105.817  74.443 105.996  74.389 107.119  74.233 107.462  74.097 110.241  73.423
 110.527  73.387 111.174  73.219 112.281    72.9 112.547  72.737 113.033  72.718
 113.179  72.657  113.62  72.602 114.206  72.453 114.495  72.344 117.368  70.984
 118.008  70.889 120.086  70.156   128.4  67.386 128.891   67.44 129.838  67.144
 130.642  66.855 131.596  66.852  131.88  66.753 132.585  66.462 132.887  66.486
 133.215  66.555 133.598  66.523 133.702  66.555 134.162  66.355 134.313  66.344
 135.732  66.169 136.842  65.976 137.848  66.014 138.634  65.985 139.437  65.901
 139.872  65.795 140.679  65.801 141.197  65.846 142.032  65.828 142.355  65.869
 142.889  65.877 143.776  65.859 144.618  65.689 144.829   65.66 145.554  65.509
 146.173  65.492 146.721   65.42 147.457  65.277 147.906  65.231 148.303  65.254
 149.014  65.164 149.442  65.192 150.059  65.109 150.398  65.095  150.79  65.146
 151.036  65.136 151.254  65.202 151.602  65.238 151.869  65.217  152.41  65.261
 153.689  65.344 153.766  65.389 154.095  65.439 154.912   65.52 155.537  65.534
 156.344  65.528 156.677  65.606 157.731  65.633 158.618  65.617 159.381  65.641
 159.641  65.665 160.745  65.611 161.283  65.646 161.819  65.765 162.291  65.816
 163.214  65.749 163.925  65.904 165.145  66.065 165.933  66.149 166.551  66.188
 167.279  66.253 167.644  66.233  167.77  66.285 168.616   66.18  169.36      66
 169.966  65.614 175.831  61.146 176.404  61.025  185.03  60.185 188.823  60.194
 200.455  60.129 201.148  60.105 203.756  61.761 206.889  64.519   207.2  64.738
 207.526  65.087 209.034  66.102 209.839  66.152 211.092  66.408 212.002  66.317
   213.2  66.344 214.406  66.287 214.753  66.261 215.463   66.25 215.898  66.219
 217.544  66.032 218.778  65.939 219.755   65.88  220.45  65.821 221.701  65.787
 222.314  65.711 222.877  65.697 223.507   65.57 224.563  65.547 225.056  65.636
 225.553  65.489 226.534   65.32 226.909  65.273 227.824  65.233 228.721  65.234
 229.705  65.248 229.755  65.217 230.717  65.154  231.78  65.168 232.435  65.163
 233.825  65.097 234.406  65.186 235.027  65.305 235.841  65.281 236.784  65.432
   237.6  65.639 238.146  65.637 238.741  65.594 239.197  65.671 240.035  65.705
 240.176  65.669 240.613  65.729 240.908  65.804 242.163  65.858 242.571  65.803
 242.825  65.824 243.943  65.969 244.648  65.944 245.453  66.043 245.898  66.136
 246.753  66.287 247.866  66.556 249.091  66.841  250.69  67.095 250.976   67.16
 252.075  67.507   252.8  67.645 253.014  67.715 253.564  67.835 257.142   68.71
 258.989  69.135 260.308  69.262 260.966  69.466 261.321  69.551 261.879  69.584
 262.813  69.465 263.694  69.564 263.792  69.627 264.449  69.648 265.085  69.568
 265.905  69.606 266.616  69.577 266.905  69.484 267.072   69.47  267.86   69.51
  270.13  69.466 270.286  69.477 271.488  69.488 272.227   69.53 273.602  69.566
 274.278  69.568 275.038  69.637 275.843  69.587 276.436  69.565 277.043  69.591
 277.602  69.523 278.532   69.32 278.872  69.316 279.367  69.238 279.629  69.265
 280.005  69.246 280.896  69.284 281.963  69.266 282.669  69.365 283.311  69.311
 283.685  69.346 284.153  69.457 285.193    69.5 285.987  69.599 286.389  69.589
 286.738  69.541 287.478  69.525 288.405  69.416 289.104   69.48 289.608  69.393
 290.545  69.326 291.409  69.404  292.36  69.405  292.77  69.384 294.715  69.215
 294.869  69.148 296.129  69.092 296.905  68.939 297.668   68.84  297.87  68.754
 298.331   68.82 299.156  68.845  300.54  68.865 301.843  68.787 302.963   68.69
 304.412  68.627 306.774  68.491 306.992  68.415 307.784  68.245 308.684  68.374
 308.825  68.381 309.426  68.321 310.143  68.309 310.661  68.241  311.13  68.208
 311.522  68.207 312.145  68.171 313.082  68.177 313.662  68.046 314.257   67.87
 315.302  67.829 315.903  67.919 316.383  68.078 316.671  68.084 317.448  68.247
 318.388  68.341 320.009  68.366 320.603  68.349 321.518  68.283 321.785  68.245
 322.913  68.212 323.853  68.197 325.547  68.202 326.097   68.15  327.36  68.112
 328.093  68.132 329.271  68.109 330.622   67.96 331.253  67.903 331.646  67.838
 332.527  67.751 332.854    67.7 334.368  67.606 335.263  67.631 335.958   67.57
 337.741  67.532 338.232  67.549 338.715  67.544 339.494  67.607 340.602  67.504
 341.637  67.378 342.031  67.267 342.459  67.083 343.817  66.959 344.837  66.889
 345.418  66.834 346.202   66.82  347.46  66.896  348.52  66.765 348.618    66.8
 348.745  66.714 349.336  66.227  350.94  64.721 351.088  64.674 352.585  64.456
 352.679  64.475  353.11  64.843 353.454  64.858 354.002  64.722 354.266  64.688
 355.226  65.026 355.778   65.13 356.731  65.032 357.114   64.55 357.226  64.497
 357.575  64.644 357.596  64.685 358.621  64.632 358.879  64.681 359.654  65.618
 360.873  66.038 362.106  66.359  362.26  66.531 362.758   66.88 363.441  67.266
 365.046  67.242 365.316  67.202 366.246  66.956 366.578  66.922 367.378  66.793
 367.738  66.841 369.362  67.216 370.494  67.769  370.71  67.772 371.143  67.827
 373.058  67.885 373.413  67.879 373.948  67.925 374.161  68.007 374.578  67.836
 374.901  67.781 375.179  67.884 376.111  67.967 376.344   67.97  377.71  68.319
 377.899  68.134 379.191  68.392 379.616  68.343 379.794  68.499 380.276  68.382
 380.526  68.392 380.915  68.465 381.336  68.426  382.24  68.475  383.37  68.327
 383.883  68.079 384.114  68.036 384.405  68.036 385.054  67.998 385.662  67.914
 386.509  68.033 386.867  68.155 387.205  68.346 387.628  68.237 387.886  68.063
 388.461  68.237 389.057  68.471  389.48  68.589 389.716  68.549 390.129  68.413
 390.759  68.494 390.931   68.57 391.516  68.676 391.634   68.82 391.907  68.685
 393.052  68.711 393.319  68.746 394.001  69.003 394.165  68.898 394.346  68.913
  397.45  69.513 397.702  69.518  400.05  69.612 401.976  69.634 403.128      70
#Mann= 3 , 0 , 0 
       0     .03       0       0     .03       0 403.128     .03       0
Bank Sta=0,403.128
XS Rating Curve= 0 ,0
XS HTab Starting El and Incr=60.255,0.3, 54 
XS HTab Horizontal Distribution= 5 , 5 , 5 
Exp/Cntr=0.3,0.1

Type RM Length L Ch R = 1 ,2004.39 ,126.45,126.45,126.45
XS GIS Cut Line=3
499805.259458638210661.968573957500023.722259307210635.089028621
500217.027319317210611.304878146
Node Last Edited Time=Jun/13/2019 13:25:04
#Sta/Elev= 490 
       0      86.6519775  86.115 1.21698   86.151.890991  86.1532.648987  86.098
3.094971  86.1814.221985  86.2245.937988  86.2566.869995  86.3017.549988  86.295
8.633972   86.329.179993  86.3979.823975  86.41511.45297  86.527  11.944  86.538
12.56799  86.63413.10699  86.76513.98499  86.64514.28497  86.64814.56198  86.583
15.24899  86.67215.87097  86.603   18.06  86.53118.33798  86.50819.43698  86.562
19.70798   86.5520.17398  86.43320.78299  86.42621.59198  86.24522.71298  86.036
23.19998   86.0524.00598  85.92224.34299   85.93  24.599  85.88825.49799  85.802
26.23798  85.658  26.758  85.74226.89999  85.73928.01999  85.44128.17499  85.343
28.67297  85.23829.41498  85.21530.18997  85.14530.59698  85.38431.09399  85.118
32.17297  84.94132.89499  84.79433.20398   84.7534.37598  84.74234.91498  84.567
  35.284  84.50936.52399  84.42336.93399  84.327  38.013  84.177  38.866  84.105
   39.87  84.07240.41299  84.11541.27798  84.06641.57199  84.06542.75299  84.009
44.47198  83.88844.95499  83.79645.16199  83.79446.95599  83.668  47.263  83.589
48.02698  83.49149.66098  83.339  50.129  83.24150.81998  83.15351.60699  83.129
52.56998  83.00653.64697  82.93655.03799   82.7255.57498  82.66956.41699  82.622
57.72699  82.65258.35397  82.60159.43597  82.45360.08398  82.39660.47897  82.388
61.77899  82.268  62.823  82.15663.90598  82.07164.51999  82.00264.91397  81.979
65.47299  81.985  65.901  81.95766.52798  81.86768.21698  81.82470.05899  81.565
71.63599  81.62172.34998   81.4472.56497  81.435  73.724  81.48974.35098  81.413
76.24899  81.34976.79999  81.29977.73099  81.17378.79898  81.13879.37997  81.262
  80.853  81.12981.10397  81.12382.34399  81.04583.14297  81.06384.13898  80.946
85.09799  80.943  86.409  80.88287.87997  80.76688.29999  80.75189.21399  80.668
90.05698  80.66391.20297  80.63991.67099  80.64891.78299  80.62192.91699  80.542
93.91498  80.41295.09399  80.30995.69998  80.34796.44498   80.2697.03998  80.286
97.90997  80.139  98.534  80.11799.70099  79.959 100.264  79.871  101.38  79.767
 102.532  79.541  103.18  79.528 103.813  79.228 104.421  79.067 105.915  79.197
 106.057  79.197 107.748  79.065 108.414  79.098 108.819   78.98 109.399  78.894
 110.348  78.876 111.867  78.896 112.959  78.828 113.837  78.788 114.952  78.602
  116.46  78.502 117.058  78.434 117.326  78.434  117.39  78.379 118.262  78.258
 118.912  78.119 119.578  78.042 120.523  77.878 120.873  77.875 121.482  77.821
 123.069  77.481 123.385  77.436 124.192  77.242 125.223  77.253   126.5  76.965
  127.37  76.737 128.159  76.504 129.099  76.334 129.884   76.08 130.476  75.963
 131.607  75.677 132.638  75.519 133.282  75.354 133.602  75.304 134.421  75.238
 135.375  75.084 136.172  74.997 136.792  74.903 137.451  74.747 138.359  74.444
 139.494  74.123  139.93  74.027 140.756  73.799 141.027  73.742 141.825  73.419
 142.592  73.165 143.557  72.915 144.162  72.739 144.729  72.593 145.819  72.343
  146.28  72.184 146.505   72.18  146.66  72.067 147.598  71.833 148.503   71.49
 149.268  71.328 150.162  71.085 150.674  70.984 150.795  70.894 150.912  70.907
 152.008   70.56   153.2  70.099 153.497   70.09 154.237  69.866 155.101   69.56
 155.539  69.477 156.419  69.379 156.652  69.265 157.702  69.078 158.113  68.942
 158.392  68.897 158.959   68.65 159.084  68.572 159.435  68.454 159.964  68.321
 160.851  68.182 160.988  68.142 161.898  68.007 162.189  67.932 162.801  67.846
 163.094  67.747 164.047  67.566 164.827  67.437 165.123  67.369 165.916  67.239
 166.414  67.099 166.952  66.996 167.262  66.902 167.409  66.893 167.953  66.748
 168.673  66.634 169.156  66.517 170.404  66.356 170.591  66.306 171.829  66.203
 172.282  66.111 173.443  66.008 174.407  65.958 174.596  65.989 175.261   65.94
 176.314  65.889 177.517  65.862 178.097  65.809 178.398  65.813 179.104  65.707
 179.356   65.71 180.242   65.67  180.81  65.614 181.201  65.612 181.654  65.638
 182.168  65.629 182.904  65.587 183.873  65.694 185.012  65.665 185.748  65.715
 186.325  65.731 187.741  65.883 188.361  65.895  188.82  65.956 190.052  65.869
 190.329  65.866 190.854  65.964 192.073  65.986  192.34  65.966 192.948  65.989
  193.47  66.058 194.774  66.147 195.352  66.114 196.044   66.02 196.615  65.985
 199.179  64.004 204.305  60.231 206.578   60.05 206.702  60.025 208.556  60.019
 208.874  60.011 217.794  60.002 226.189  59.991 232.704  60.113 233.092  60.109
 233.682  60.358 233.911  60.366 235.411  61.691 239.998  66.109 240.758   66.13
 241.374  66.128 242.233  66.202 243.689  66.184 243.806  66.161 245.223  66.042
 245.314  66.073 246.243  65.969 246.783  65.877 247.144  65.853  247.81  65.749
 248.781  65.665 250.257  65.642 250.764  65.662 251.481  65.589  252.87   65.69
 253.125  65.825 253.785  65.783  254.21  65.698 254.675  65.811 255.593  66.081
 256.123  66.125 256.347  66.203 256.525  66.188 257.722  65.907 258.042  65.974
 258.259   65.98 259.272  66.171 259.536  66.138 260.429  66.136 261.319  66.213
 261.912  66.358 262.967  66.353 263.431  66.298 264.717  66.441 265.338  66.454
 265.783  66.512 266.268  66.532 266.453  66.599 267.251  66.751 268.015  66.865
 269.031  66.741 269.648  66.835 270.756  67.065 271.593  67.252 272.611  67.461
 272.975  67.491  273.56  67.611 274.054  67.747   274.3  67.853 274.618  67.943
 276.138  68.471 276.687  68.603 283.436  71.147 285.665   72.11 286.111  72.372
   286.5  72.487 287.691  73.008 288.118  73.106  288.55  73.369 288.679  73.389
  289.85  73.778 290.081  73.807  290.27  73.924 290.894  74.158 292.093  74.732
 292.347   74.82 293.622  75.366 294.055   75.45 294.428   75.57 295.363  75.827
 299.865  77.078 299.895  77.112 300.277  77.157 300.693  77.245 301.817  77.525
 301.909  77.522 302.803  77.733 303.104  77.767 304.165  78.052 304.531  78.162
 305.199  78.332 305.827  78.437 306.014   78.51 307.447  78.824 308.275  78.915
  308.89  79.046 309.056  79.051 309.485  79.157 309.857  79.218 311.272  79.548
 311.451  79.566 313.423  80.036  314.19  80.256  314.84  80.388 315.537  80.622
 315.773  80.669 316.707  80.778 317.386  80.777 317.544    80.8 319.172  81.148
 319.362  81.197 320.103  81.462 320.305  81.484 321.208  81.752 322.113  81.971
 322.728  82.051 323.398  82.184 325.599  82.531 326.133  82.491 328.388   83.02
 328.828  83.022 329.411  83.067 331.121  83.079 332.053  83.133 333.712  83.269
 335.202  83.341 336.127  83.509 337.563  83.748 337.747   83.74 338.768  83.895
 339.475  83.936 340.211   84.03 340.843  84.018 341.155  84.052 341.484  84.124
 342.034  84.162 343.045  84.339 343.905  84.432 345.155  84.532 345.993  84.636
 347.674  84.786 349.169  84.969 351.163  85.101 351.408  85.093 353.014  85.185
 353.894  85.251 354.178  85.294 354.291  85.369 355.105  85.451 355.553  85.479
 356.621  85.662 356.697  85.659 357.265  85.464 358.157  85.549  359.15  85.569
 361.165  85.731 362.284  85.754 362.614  85.708 363.074  85.718 363.287  85.768
  364.52  85.804 365.423  85.791   366.1  85.851 367.563  85.907 367.676  85.888
 368.803  85.949 369.095  85.984 370.082  85.976 370.632  86.022  371.69  86.033
 372.688  86.077 373.711  86.147 374.474  86.263 375.223  86.281  376.35  86.362
 377.674  86.338 379.072  86.287 379.256  86.322 380.964  86.418 381.337  86.404
 382.268  86.446 383.184  86.464 384.149  86.529  384.47  86.505 385.396  86.506
 386.385  86.543 387.136  86.601 388.339  86.594 389.077  86.552 389.794  86.564
 391.508  86.821  391.86  86.777 392.991  86.802 393.247  86.789 394.162  86.821
 394.582  86.819 395.637  86.744 397.119  86.744 398.075  86.731 399.245  86.664
 399.683  86.707 399.971  86.806 401.279  86.654 402.374  86.638 402.824  86.647
  403.41  86.691 403.768  86.686 404.533  86.715 405.277  86.797 405.797    86.8
 406.453  86.774 407.147  86.719  408.06  86.729 408.806  86.811 409.408  86.794
 409.963  86.832 410.666  86.841 410.961  86.884 411.616  86.887 412.234  86.695
 412.521  86.667 413.525   86.72 413.971  86.651 414.318  86.266 414.873      86
#Mann= 3 , 0 , 0 
       0     .03       0       0     .03       0 414.873     .03       0
Bank Sta=0,414.873
XS Rating Curve= 0 ,0
XS HTab Starting El and Incr=60.141,0.3, 89 
XS HTab Horizontal Distribution= 5 , 5 , 5 
Exp/Cntr=0.3,0.1

Type RM Length L Ch R = 1 ,1877.94 ,153.24,153.24,153.24
XS GIS Cut Line=3
499828.793149547210822.525144313500023.430892069210759.937912537
500236.965108833210691.274377174
Node Last Edited Time=Jun/13/2019 13:25:04
#Sta/Elev= 490 
       0      861.365997  86.3152.480011  86.5492.643005  86.5423.235992  86.687
3.570007  86.7034.578003  86.8345.371002  87.0385.595001  87.1196.446014  87.293
7.394012  87.5848.391998   87.739.162994  87.90111.07199   88.1512.54501  88.353
13.07199  88.466  14.203  88.62717.42502  89.03318.24301  89.11319.19601  89.309
  20.319  89.21521.22501  89.346  21.646  89.32821.95599  89.38522.44601  89.403
23.30701  89.37423.62399  89.38224.63101   89.3725.16901  89.28525.72699   89.24
26.78101  89.247  28.099  89.239  29.358  89.206  29.741  89.14730.43399  89.128
31.34799  88.999  32.061  89.03532.62601  89.00333.34799  88.93834.54001  88.873
34.80499  88.935  35.431  88.89535.83801  88.78836.54599  88.73438.42999  88.535
39.73001   88.3340.84399  88.20840.89001  88.21341.93201  88.08742.96802  88.026
43.48001  87.92244.40399  87.777  44.992  87.506  45.306  87.293  46.216  86.722
   46.44  86.63647.73001  86.35848.42999  86.357  48.685  86.318   49.69  86.257
49.84702  86.25950.81302  86.15350.91202  86.128  52.034  86.02152.70901  86.052
  54.009  85.97154.97699  85.75855.76801  85.62556.14401  85.57657.82101  85.448
58.99402  85.795  59.034  85.78760.52701  85.76961.16299  85.65762.06799  85.577
  62.315  85.53963.61301  85.28163.72299  85.281  64.328  85.181  65.423  85.091
  66.207  84.93467.10901  84.81268.68201  84.559  69.548  84.45770.98102  84.248
72.07199  84.11472.64999  83.981  73.569  83.826  74.116  83.775  76.457   83.36
  77.418  83.27278.07401  83.19278.81799   83.1279.32199  83.01779.68399  83.005
80.44501  82.92281.03799  82.821  82.077  82.714  82.539  82.62282.97601  82.588
84.29599  82.43785.38602  82.427  86.936  82.31987.70599  82.278  88.862  82.159
89.33499  82.178  91.311  82.04691.76401  81.97293.22699  81.91894.44601  81.916
94.55899  81.90295.45401   81.95  95.586   81.9496.25601  81.97897.12399  81.956
98.04001  82.08799.16501  82.064 100.273  82.114 101.224  82.077 101.944  82.139
 102.834  82.118 103.839   82.15 104.568   82.13 105.339  82.131 106.987  82.078
 107.461  82.099 108.332  82.039 109.242  82.013 111.413  81.904  111.67  81.914
 113.857  81.814 114.985  81.731  115.18  81.741 115.722  81.656 116.843  81.512