Geom Title=Site 3611 17B Geometry data
Program Version=5.07
Viewing Rectangle= 551081.2866 , 551782.3734 , 4663098.86039042 , 4662834.39245936 

River Reach=esopus creek    ,RiverCL         
Reach XY= 19 
       551088.16      4662887.48         551126.      4662901.13
       551148.91      4662905.44       551173.44      4662914.63
       551198.94      4662925.29        551225.1      4662939.54
       551272.47      4662976.84       551315.66       4663011.7
       551339.95      4663030.58       551367.61      4663036.54
       551406.29      4663030.75       551438.56      4663022.09
       551480.06      4663007.63       551531.11      4662992.07
       551564.33      4662976.56       551599.81      4662959.84
        551643.9      4662947.46       551675.94      4662940.94
        551775.5      4662924.19
Rch Text X Y=551603.665,4662915.0125
Reverse River Text= 0 

Type RM Length L Ch R = 1 ,721.16  ,52.52,52.52,52.52
XS GIS Cut Line=3
 551129.296553654662836.98528221551112.6449905144662896.31569313
551094.5318527874662960.85377257
Node Last Edited Time=Jan/11/2021 19:01:26
#Sta/Elev= 442 
       0 308.995    .326  309.07   1.206 309.078   1.523 309.054   1.788 309.196
   1.799   309.2   1.811 309.198   2.954 309.074   4.235 309.089   6.274 309.604
   6.719 309.753   6.818 309.744   7.621 309.798    7.78  309.79   8.013 309.685
   8.324 309.634   8.663 309.645   8.932 309.695   9.039 309.659   9.255 309.548
   9.667 309.535   9.856 309.465  10.083 309.548  10.149 309.613  10.175 309.608
  10.351 309.618  10.972 309.559  11.142 309.561  11.296 309.511  11.433 309.563
  11.495 309.574  11.527 309.573  12.283 309.584  12.293 309.524  12.511 309.578
  12.987 309.634  13.269 309.475  13.502 309.482   13.64 309.452   14.38 309.597
  14.728 309.724  14.969 309.457  14.994 309.486  15.035 309.562  15.122 309.644
  15.854 309.748  15.865 309.749  15.881 309.725  15.998 309.544  16.001 309.542
  16.206 309.614  16.269 309.635  16.659 309.659  17.361  309.62  17.758 309.705
  22.722 309.613  24.823 309.885  27.492 309.875  28.695 309.917  30.977 309.794
  31.108 309.804  31.116 309.896  31.177 309.909  31.506 310.039  31.508 310.039
  31.515  310.04   32.07  310.01  32.245 309.928  32.638 309.874  39.403 308.754
  48.805 306.579  48.876  306.54  48.906 306.531  49.143 306.629  49.146 306.628
  49.164 306.622  49.558 306.435  49.867 306.337  49.961 306.328  50.234 306.247
  50.536 306.275  50.945 306.266  50.969 306.253  51.022 306.239  51.206 306.241
  51.843 306.195  51.855 306.191  51.865 306.192   51.87 306.191      52 306.187
  52.225 306.118  52.236 306.115  52.304 306.134  52.346 306.134  52.558 306.215
  52.761 306.237  52.957 306.386  52.993 306.384  53.046 306.366  53.315 306.216
  53.485  306.23  53.614 306.228  53.737 306.229  53.859 306.289  53.991 306.332
  54.095 306.267  54.362 306.059  54.417 306.082  54.789 306.097   54.87 306.097
  55.033 306.182  55.052  306.17  55.231 306.106  55.348 305.999  55.552  306.01
   55.58  306.02  55.606 306.018  55.614 306.014  55.767 306.075  56.307  306.08
   56.31  306.08  56.481 306.086  56.574 306.024  56.746 306.025  56.823 306.035
  56.923  306.05  57.444 306.136  57.524 306.127   57.67 306.123  57.701  306.11
  57.819 306.091  58.099 306.082  58.424 306.033  58.639 306.019  58.738 306.055
  58.807 306.093  58.892 306.066  59.499 305.985  59.702 306.003  59.801 306.016
  60.313 306.072  60.562 306.076  60.822 306.013  61.123 305.975  61.433 306.081
  61.556 306.102  61.623 306.116  61.906 306.178  61.934 306.173  62.122 306.037
  62.165 306.044  62.878 306.054  62.922 306.042  63.403 306.024  63.509 306.066
  63.636 306.038  63.696 306.108  64.115 306.076  64.244  306.06  65.018 306.157
  65.074 306.152  65.221 306.112  65.283 306.109  65.437 306.125   65.46 306.124
  66.923 306.025  66.978 306.018  68.118 305.948  68.613 305.983  68.929 305.981
  69.999 305.988  70.293 306.019  70.874 306.041  71.075 306.033  71.318 306.057
  71.411 306.113  71.521 306.136  72.178 306.262  72.224 306.278  74.168 309.341
  74.397 309.629  74.443  309.65  74.502 309.642  74.763 309.669  75.134  309.69
  75.208 309.673  75.315 309.637  75.516 309.653  75.627 309.645  75.671 309.654
  75.868 309.631  76.032 309.648  76.172   309.6  76.405 309.621   76.43 309.619
  76.499 309.614  76.783 309.529  77.068 309.556  77.134 309.574  77.213 309.594
  77.647 309.555   77.67 309.552  77.694 309.546  78.091 309.503  78.351 309.458
  78.377 309.459   78.39 309.455  78.409 309.452  78.423 309.455  79.071 309.491
  79.077 309.491  79.083  309.49  79.331 309.485  79.523  309.53  79.619  309.53
  79.896 309.525  80.002 309.508  80.147 309.496  80.292  309.48  80.493 309.474
  80.536 309.478  80.651 309.459  80.756 309.417   80.85 309.404  80.913 309.435
  80.947 309.427  81.097 309.397  81.167 309.398  81.277 309.416  81.382  309.37
  81.406 309.353  81.474 309.447  81.531 309.438  81.653 309.347  81.685 309.364
  81.736 309.366  81.873 309.385   81.89 309.389  81.941 309.387  82.073 309.375
  82.125 309.385  82.174 309.388  82.217 309.376  82.741 309.354  82.793 309.355
  82.825 309.356  82.847 309.354  82.888 309.356   83.05 309.364  83.369 309.363
  83.764 309.345  83.907 309.367  84.214 309.366  84.579 309.337  84.641 309.333
  84.688 309.334  85.155 309.359  85.285 309.353  85.449 309.348  85.927 309.369
  85.939  309.37  85.962 309.371  86.184  309.37  86.239 309.371  86.259 309.386
  86.287  309.38  86.314 309.383  86.353 309.374  86.389  309.38  86.621 309.376
  86.815 309.357  86.839 309.354  86.865  309.34  86.892 309.362  86.918 309.352
  86.956 309.321   86.97 309.353  86.984 309.354  86.992 309.368      87 309.361
  87.009 309.354  87.018 309.362   87.05 309.369  87.245 309.377  87.278 309.379
  87.506 309.362  87.611 309.357  87.914  309.36  88.056 309.358  88.227 309.324
  88.402 309.336  88.485 309.323  89.027 309.332  89.141 309.333  89.168 309.328
  89.196 309.332  89.432 309.287  89.675 309.288   90.05 309.312  90.178 309.308
  90.394 309.283  90.558 309.275  90.793 309.287  90.978 309.288   91.07 309.242
  91.094 309.241  91.285 309.215  91.378 309.222  91.699 309.256  91.903 309.281
  92.028 309.286  92.179 309.256  92.247 309.248  92.406 309.238  92.878 309.239
  92.912 309.241  92.925 309.241  92.939 309.239  93.148 309.279  93.516  309.22
   93.67 309.217  93.738 309.238  93.782  309.24  93.979 309.214  94.013 309.211
  94.106 309.249  94.453 309.205  94.515 309.205  94.571 309.276   95.53 309.155
  95.853 309.248  95.866 309.258  95.875 309.259  95.877 309.258  95.882 309.258
  95.893 309.256  96.473 309.324  96.495 309.261  97.025 309.087  97.332 309.317
  98.025 309.295  98.452 309.398  98.538 309.379  98.634  309.41  98.799 309.406
  99.512 309.121 100.357 309.073 100.538 309.016 103.745 309.295 103.773   309.3
 103.793 309.285 105.896 308.972 106.632  309.23 107.359 309.432 107.925 309.487
 108.515 309.259 109.034 309.132 109.268 309.362 109.452 309.338 109.611 309.344
 109.646 309.357 110.298 309.247 110.379 309.243 110.411 309.252 110.646 309.262
 110.776 309.292 110.813 309.248 110.957 309.247 111.344 309.407 111.675 309.374
 111.762 309.354 111.821  309.35   112.3 309.479 112.302  309.48 112.456   309.5
 112.562 309.495 112.756 309.412 112.999 309.449 113.213 309.471 113.361 309.376
 113.437 309.414 113.687  309.38 113.696  309.38 114.099 309.434 114.129 309.436
 114.148 309.427 114.475 309.338 114.495 309.338 114.652   309.3 114.661 309.301
  115.04 309.344 115.263 309.311 115.315 309.331 115.504  309.32 115.921 309.343
 115.992 309.373 116.043 309.411 116.081 309.402 116.611 309.349 116.745 309.303
 116.827  309.34 117.146 309.373 117.227 309.338 117.554 309.319 117.719 309.303
 118.191 309.264 118.231 309.261 118.318 309.275 118.635  309.28 118.796 309.202
 118.893 309.304 120.877 309.278 121.586 309.205 121.676 309.212  121.88  309.16
 122.619 309.137 122.721 309.133 123.519 309.046 123.755 309.043 123.831 309.138
 124.025 309.106 124.394 309.106 124.508 309.052 124.818 309.084 124.892 309.116
 125.221 309.303 125.493 309.248 125.858 309.064 125.905 309.066 126.115 309.058
 126.429 309.088 126.671 309.082 126.775 309.142 126.947 309.185 127.052 309.157
 127.173   309.2 127.474 309.195 127.552 309.208 128.012 309.148 128.146 309.158
 128.314 309.312 128.655 309.284
#Mann= 3 , 0 , 0 
       0      .1       0       0      .1       0 128.655      .1       0
Bank Sta=0,128.655
XS Rating Curve= 0 ,0
XS HTab Starting El and Incr=306.098,0.2, 20 
XS HTab Horizontal Distribution= 5 , 5 , 5 
Exp/Cntr=0.3,0.1

Type RM Length L Ch R = 1 ,668.64  ,56.82,56.82,56.82
XS GIS Cut Line=3
551180.2385323564662861.29731872551162.9676391014662910.70276848
551142.1945761034662970.12659243
Node Last Edited Time=Jan/11/2021 19:25:47
#Sta/Elev= 336 
       0 310.158   1.618 310.349   4.501 310.677   5.971 310.884   7.174 310.897
   7.315 310.925   8.105 310.955  11.131 311.028  12.196 311.022  13.872 310.876
  13.982 310.881  14.046 310.884   14.12 310.882   14.38 310.897  17.053 311.271
  17.076 311.244   17.96 311.377  18.074 311.416  18.248 311.411  18.337 311.423
  18.482 311.376  19.059 311.381  19.229 311.438   19.49 311.448  19.746 311.346
  19.913 311.335  20.632 311.316  21.115 311.321  21.385 311.326  21.574 311.324
    21.6 311.232   22.33 311.052  22.371 311.204  22.583 311.194  22.921 311.171
  23.335 311.065  23.536 311.111  23.781 310.954  24.079   310.9  24.122 310.877
  24.196 310.849  24.873 310.973  25.339 310.981  25.825 311.019  26.108 310.975
  26.263 311.012   26.78   310.9  27.217  310.77  27.341 310.751  27.621 310.798
  27.685 310.811  27.856 310.784  28.273 310.945   28.51 310.752  28.543 310.755
   28.87 310.718  29.225 310.651  29.303 310.711  29.534 310.771  29.645 310.781
  29.663 310.866  29.866 310.796  29.926 310.752  30.185 310.653  30.255 310.689
  30.336 310.696   30.71 310.781  30.882 310.775  31.016 310.753  31.031 310.754
  31.453 310.862  31.516 310.856  31.788 310.782  31.908 310.766  32.103 310.878
  32.237 310.968   32.25  310.98   32.35 310.971  32.806 310.964  32.937 310.932
  33.858 310.856  33.862 310.857    34.8 310.752  34.973 310.765  35.653 310.429
  37.552 309.255   40.94 307.447  41.257  307.22  42.299 306.555  42.448 306.581
  43.047 306.625  43.111 306.591  43.352 306.678   43.41 306.645  43.428 306.645
  43.498 306.629  43.927  306.55   43.98 306.556  44.039 306.575  44.076 306.563
  44.228 306.583  44.242 306.589  44.581 306.465  45.042  306.33   45.13 306.281
   45.46 306.239  45.696 306.185  46.008 306.148  46.137 306.103  46.342 306.091
  46.755 305.881  47.249 305.847  47.452 305.854  47.829 305.872   47.93 305.879
   48.08 305.871  48.277 305.875  48.324 305.832  48.373 305.813  48.672 305.812
  48.892 305.798  49.278 305.826  49.386 305.834  49.976 305.897  50.241 305.915
  50.303 305.911  50.341 305.908  50.898 305.855  51.081 305.873  51.334  305.85
  51.678 305.809  51.929  305.82  52.337 305.874  52.363 305.878  52.372  305.88
   52.38 305.879   52.39  305.88  52.894 305.894  53.105 305.896  53.566 305.894
  53.871 305.883  54.038  305.89   54.21 305.914  54.738 305.804  55.006 305.682
  55.417  305.77  55.515 305.795  55.745 305.872  56.362  305.88  56.827 305.895
  57.136 305.876  57.311 305.884  57.601 305.781   58.26 305.787    58.7  305.92
  58.748 305.913  58.803 305.907  59.277 305.763  59.433  305.75  59.625   305.8
  59.777 305.855  60.009 305.825  61.632 305.787  62.365 305.806  62.444 305.873
  63.071  305.85  64.224 305.887  65.158  305.97  65.255  305.98  65.379 305.992
  65.781 306.007  65.849 306.005  65.858 306.017  65.872 306.035  65.874 306.056
  69.978 307.702  72.805 308.857  73.134 308.984  73.746 309.215  73.966  309.18
  74.659 309.063  74.783 308.962  74.794  309.02  74.874 308.993  74.982 308.969
  75.354 309.013  75.404 309.021  75.859 308.992  75.889  308.99  75.906 308.992
  76.318  309.03  76.643 308.947  76.913 308.904  77.051 308.938  77.113 308.966
  77.246 308.964  77.919 308.964  78.163 308.979  78.182 308.957  78.712  308.87
  78.929 308.877  78.947 308.873   79.01 308.877   79.14 308.887  79.565 308.932
  79.769 308.991   79.87 308.903  79.942 308.894  80.312 308.917  80.642 308.941
  80.648 308.938  81.158 308.934  81.243 308.936  81.422 308.935  81.608 308.908
  81.816 308.926  82.148 308.934  82.313  308.94  82.517 309.015  82.537 309.017
  82.546 309.017  83.082 308.987  83.131 308.985  83.423 308.975  83.581 308.965
  83.878 308.926   84.22 308.918  84.476 308.888  84.684 308.859   84.77 308.862
  84.957 308.863  85.614 308.916  85.707 308.893    86.2 308.701  86.628 308.832
  86.794 308.932  86.922  309.03  87.254 308.996  87.402 308.948  87.529 308.957
   87.66  308.95  87.853 308.938  87.967 308.942  88.097 308.813  88.128 308.806
    88.6 308.883   88.74 308.944  89.129 308.778  89.241  308.78  89.331 308.654
  89.457 308.685  89.548 308.854  89.724  308.84  90.195  308.87  90.394 308.905
   90.76 308.963  90.952 308.862  91.124 308.648  91.466 308.745  91.721 308.797
  91.763 308.805  91.783   308.8  91.838 308.817  92.503 308.885  92.589 308.883
  92.695 308.873  92.784 308.859  93.252 308.831  93.516 308.905  93.785 308.893
  93.991 308.936  94.536  308.86  95.972 308.969  96.816 308.999  96.927 309.002
   97.14 309.002  97.235 309.017   97.37 309.004  97.435 309.013  97.627 308.982
   97.74  308.99  99.578  308.79 100.315 308.886 100.426 308.807 101.189 308.783
 102.795 308.674 103.583 308.905 103.725 308.767 103.803 308.759 104.094 308.731
 104.351 308.717 104.425 308.714 105.449 308.674 105.582 308.682 105.597 308.679
 105.676  308.66 106.391 308.549 106.638  308.52 106.731  308.62  106.81  308.67
 107.284 308.606 107.685 308.567 107.911 308.563 107.915 308.589 108.169 308.583
 108.607 308.596  108.73 308.509 109.455 308.462 109.492 308.464 109.781  308.53
 110.322 308.485 110.456  308.49 110.521 308.498 110.652 308.518 111.087 308.645
  111.41 308.579 111.559 308.613 111.585 308.428 112.185 308.561 112.333 308.559
 112.381 308.548 112.572 308.629 112.657 308.654 112.701 308.652 113.211 308.508
  113.42 308.515 113.609 308.555 113.864 308.546 114.051 308.562 114.234 308.525
 114.666 308.566 114.827 308.561 114.886 308.578 115.101  308.59 115.267 308.593
 115.287 308.594
#Mann= 3 , 0 , 0 
       0      .1       0       0      .1       0 115.287      .1       0
Bank Sta=0,115.287
XS Rating Curve= 0 ,0
XS HTab Starting El and Incr=305.832,0.28, 20 
XS HTab Horizontal Distribution= 5 , 5 , 5 
Exp/Cntr=0.3,0.1

Type RM Length L Ch R = 1 ,611.82  ,53.1,53.1,53.1
XS GIS Cut Line=3
551245.6720045794662882.50541932551214.7442267884662933.89776209
551186.2546186534662981.23862559
Node Last Edited Time=Jan/11/2021 19:47:56
#Sta/Elev= 495 
       0 310.816    .129 310.886    .316 310.886     .34  310.88   1.146   310.9
   1.572  310.87    2.57  310.83   3.376 310.799   3.576 310.772   3.824 310.774
   4.112  310.69   4.804 310.622   5.031 310.645   5.339 310.524   5.445 310.532
   5.834 310.611   5.979 310.597   6.173 310.613   6.373  310.61   6.526  310.62
   6.648 310.595   6.772  310.57   6.945 310.541   7.121 310.583   7.206  310.59
   7.228  310.59   7.245 310.592   7.278  310.59    7.44  310.59    7.68 310.635
   7.745 310.653   7.796  310.65   7.834 310.639   7.926 310.638   8.334 310.616
     8.5 310.624   9.566 310.688   9.865 310.699  10.066 310.748  10.078 310.733
  10.222 310.604  10.482 310.423   10.91 310.651  11.031 310.652  11.152 310.668
  11.158 310.667  11.274 310.642    11.7 310.679   11.75 310.686  11.779 310.686
  11.826 310.694  12.369 310.695  12.845 310.659   12.91  310.66  12.974 310.668
  13.265  310.66  13.758 310.671  13.769  310.67  13.771 310.671  13.818 310.755
  13.894 310.761  13.962 310.799  14.368 310.852  15.682 310.708  19.154 310.686
  19.308 310.695  19.857 310.706  20.108 310.617  20.456 310.682  21.626 310.604
  22.617 310.375  22.944 310.323  23.249 310.336  23.447 310.203  24.153 310.277
  24.312 310.281  24.401 310.328  24.422 310.215  24.544 310.279  24.927 310.318
  24.972 310.338  25.067 310.339  25.225 310.361  25.446  310.29  25.518 310.261
  25.532 310.264  25.564 310.264  26.055  310.31  26.136 310.323  26.843  310.42
  26.917 310.435  26.991 310.422  27.112 310.405  27.178 310.399  27.404 310.378
  27.767 310.344  27.948  310.37  27.981 310.376  28.057  310.38  28.074 310.382
  28.417   310.4  28.601 310.394  28.625 310.394   28.77   310.4  28.896 310.402
  29.042   310.4  29.112 310.401  29.142 310.443   29.31 310.391  29.511 310.366
   29.77 310.352  30.039 310.288  30.202  310.24  30.771 310.164  31.079 310.119
  31.177 310.097  31.261 310.115  31.391 310.138  31.735 310.046  31.823 310.022
  31.834 310.032  31.894 310.007  32.216 309.974  32.362  309.94   32.63 309.931
  32.642 309.925  32.849 309.861  32.904 309.868  32.924 309.867  33.471 309.804
  33.507 309.803  33.546 309.795  33.824 309.753  33.905 309.749    34.3 309.657
  34.336  309.65  34.369 309.644  34.774 309.592  34.835 309.578  34.911 309.568
  35.147 309.566   35.29 309.547  35.652 309.492  35.661  309.49  35.663  309.49
  35.685 309.497  35.839 309.552  35.898 309.538  36.104  309.48  36.193 309.492
  36.522 309.451  36.542 309.448  36.639 309.437  36.914 309.444   36.99 309.428
  37.036  309.45  37.462  309.43  37.693 309.387  37.809 309.347  38.032 309.297
  38.265 309.272  38.296 309.274  38.501  309.37  38.857 309.374  39.309 309.323
  39.352  309.34  39.429  309.33  39.536  309.34   39.61 309.346   39.79 309.334
  39.849 309.332  40.049 309.292  40.128 309.287  40.193 309.334  40.305  309.29
  40.388 309.329   40.44 309.356  40.509 309.385  40.844 309.332  41.057 309.394
  41.329 309.434  41.482 309.412  42.132 309.442  42.175 309.439  42.194 309.436
  42.206 309.436  42.219  309.44  42.302 309.427  42.529 309.406  42.612 309.401
  43.054 309.448  43.073 309.453  43.099  309.43   43.14 309.432  43.364 309.393
  43.414 309.382   43.42 309.381  43.427  309.38  43.446 309.376  43.472 309.367
  43.583 309.339  43.591 309.334  43.613 309.328  43.752 309.298  43.775 309.289
  43.872 309.288   43.89 309.287   43.95 309.284  43.985 309.276  44.009  309.29
  44.137 309.287   44.32   309.2  44.466 309.123  44.491 309.096  44.553 309.093
  44.728 309.084  44.776 309.083  44.828 309.065  45.469 308.759   45.52 308.764
  45.572 308.731  45.603 308.765  45.616 308.826  45.822 308.813  48.261 306.705
  49.056 306.065   49.13 306.017  49.313 305.904  49.721 305.896  49.739  305.91
  50.105 305.554  50.574 305.311  50.743 305.334  51.173 305.315   51.22 305.379
  51.238 305.376  51.256 305.304  51.475 305.265  51.698 305.272  51.798 305.308
  51.979  305.31  52.662 305.335   53.55 305.316  53.693 305.311  53.739 305.309
  53.798 305.312  54.245 305.219   54.66 305.239  54.766  305.28  54.907 305.318
   55.07 305.243  55.778 305.358  55.962 305.399  56.012 305.397    56.7  305.33
  56.937 305.202  56.981  305.18  57.473 305.458  57.652 305.491  57.903 305.405
  57.937 305.385  57.959 305.378  58.008 305.382  58.048 305.383  58.928 305.465
  59.834 305.351  59.886 305.342  59.945 305.334  59.981  305.33  60.229 305.303
  60.551 305.366  60.659 305.387  60.802 305.375  61.421  305.28  61.598 305.336
  62.157  305.32  62.511 305.365  62.714 305.367  63.402 305.524  63.429 305.529
  63.441 305.527  63.457 305.526  64.316 305.413  64.658 305.354  65.126 305.389
  65.306  305.42    65.7 305.449  65.818  305.47  65.833 305.466  66.069 305.452
  66.316 305.405  66.432 305.469  66.579 305.374  66.697 305.366  66.749 305.378
   67.25 305.435  67.534 305.417  67.772 305.422  68.163 305.392  68.221 305.385
   68.36 305.396  68.635 305.393  68.876  305.38  69.298 305.472  69.442 305.488
  69.569  305.47   69.78 305.455  70.017 305.413  70.121 305.422  70.287 305.532
   70.82 305.809  71.006 305.857  71.044 305.861  71.082 305.866  71.496 305.858
  71.679 305.917  72.005 305.977  72.274 305.993  73.163 306.001  73.521 306.063
  75.111 307.226   77.72 308.687  78.166 308.791   78.22 308.782  78.494 308.857
  78.964 308.938  79.394 309.025  80.097 308.894  80.524  308.99  80.527  308.99
  80.532 308.989  81.207 308.859  81.251 308.873  81.417 308.899  81.902 309.062
  82.296 309.032  82.352 309.036   82.75 309.072  82.874 309.057  83.042  309.02
  83.166 309.005  83.517 309.049  83.692 309.044  83.716 309.048  83.863 309.058
  84.136 309.087  84.325  309.08  84.498 309.085  84.669 309.065  84.707 309.079
   84.96 308.997  85.482 309.005  85.684 309.015  85.799 309.018  86.043 309.036
  86.206 309.027  86.714 309.059   86.72 309.058  86.724 309.056  86.984 308.978
  87.122 309.018  87.763 308.992  87.824 309.001  87.912 308.994  87.982 309.004
  88.505 309.009  88.615 309.011  88.624 309.011  88.747 309.005  88.971 308.998
   89.12 308.984   89.49 308.962  90.607 308.997  90.641 308.998   90.77  309.02
  90.776 309.019  91.109 308.976  91.493 308.913  91.621 308.905   91.84 308.929
  92.151 308.976  92.244 308.965  92.507 308.918  92.798 308.964  92.838 308.968
  92.884 308.963   93.23 308.947  93.556 308.967  93.739 309.007  93.889 308.999
  94.357 308.925   94.59 308.936  94.803 308.966  95.049  308.95  95.215 308.934
  95.298 308.911  95.424 308.902  95.822 308.954  96.351  308.96  96.354 308.959
  96.696 308.932  96.761 308.964  96.832 308.921  96.947  308.91  97.026 308.914
  97.631 308.921  97.683 308.894  98.464 308.854  98.517 308.853  98.683 308.843
  99.094 308.853   99.19 308.857  99.289 308.866  99.339 308.866  99.446 308.877
  99.798 308.833  99.978 308.845 100.154 308.861 100.584 308.832 100.627  308.83
 100.878 308.867 100.897 308.869 100.918 308.868 100.919 308.867 101.499  308.82
 101.618 308.838   101.8 308.845 102.178 308.816  102.28 308.828  102.31 308.816
 102.489  308.82 102.691 308.826 102.893 308.843 103.041 308.834 103.209 308.815
  103.42 308.827 103.558 308.873 103.757 308.887 104.425 308.865 104.493 308.866
 104.518  308.87 104.601  308.88 104.864 308.917 105.063  308.91 105.314 308.871
 105.383 308.876 105.588 308.873 106.005 308.836 106.172 308.785 106.624 308.843
 106.689 308.848 106.719 308.844 107.058 308.767 107.413 308.794 107.562 308.779
  107.57 308.781  107.71 308.841 107.725 308.837 107.913 308.794 108.015 308.795
 108.241 308.792 108.423  308.82 108.797 308.762 108.937 308.764  109.53  308.75
 109.639 308.746 109.774 308.745 110.047 308.722 110.213 308.704 110.286 308.715
 110.384 308.718 110.543 308.717 110.849 308.691 110.934 308.714 111.003 308.719
 111.115 308.717 111.639 308.697 111.695 308.689 111.724 308.691 111.836 308.705
 112.074 308.727 112.171 308.724  112.75 308.735 112.825  308.72 112.935 308.676
 113.173  308.68 113.387 308.682 113.538 308.676 113.752 308.673  113.84 308.702
  114.14 308.736 114.668 308.703 114.786 308.709  115.01 308.703 115.233  308.69
#Mann= 3 , 0 , 0 
       0      .1       0       0      .1       0 115.233      .1       0
Bank Sta=0,115.233
XS Rating Curve= 0 ,0
XS HTab Starting El and Incr=305.33,0.28, 20 
XS HTab Horizontal Distribution= 5 , 5 , 5 
Exp/Cntr=0.3,0.1

Type RM Length L Ch R = 1 ,558.72  ,62.02,62.02,62.02
XS GIS Cut Line=3
551295.4246153854662917.34615385551257.5494807124662965.09663689
 551224.187883794663007.15674788
Node Last Edited Time=Jan/11/2021 20:22:09
#Sta/Elev= 378 
       0     310    .332 310.059    .351 310.037   1.389 309.972   1.486 309.984
   1.521 309.937   1.535 309.914   1.771 309.969    2.18 309.904   2.207 309.863
   2.257 309.888   2.399 309.874   2.496 309.886   2.761 309.829   3.232 309.775
   3.278 309.788   3.287 309.775   3.382 309.836   3.579 309.763   3.583 309.755
   3.612 309.752   3.615  309.75   3.725 309.797   3.752 309.801   3.816 309.759
   4.079 309.723   7.377 309.546   7.673 309.474   9.106 309.446   9.389 309.451
   9.775 309.543  10.053 309.571  10.184 309.508  10.411 309.511  10.484 309.509
  10.832 309.336  11.005 309.334  11.161 309.326  11.211  309.32  11.347 309.314
  11.641 309.308  11.929 309.331  11.958 309.338  12.059 309.325  12.416 309.318
  12.521 309.316  12.645 309.314  13.382 309.265  13.459 309.262  13.588 309.244
  14.083 309.254  14.232 309.265  14.397 309.265  14.784  309.25   14.92 309.215
  15.004 309.232  15.028 309.237  15.133 309.252  15.591 309.235  15.638 309.232
  15.676 309.229   15.73 309.225  16.224 309.213   16.36 309.219  16.682 309.255
  16.885 309.252  17.001 309.258  17.436 309.197   17.48  309.19  17.577  309.19
  17.756 309.207   17.92 309.197  18.016 309.195  18.061 309.196  18.433 309.221
   18.88 309.202   18.91 309.202  18.927 309.196  19.055 309.177  19.394  309.11
  19.459 309.101  19.491 309.093  19.556 309.088   19.68 309.091  19.908  309.08
  19.938 309.062  20.363  309.01  20.996 308.893  21.007 308.892  21.037 308.903
  21.192 308.985  21.343 309.006   21.53 308.983   21.56 308.992  21.996 308.991
  22.117 308.979  22.287 308.982   22.56 309.069  22.624 309.041   23.14 309.091
  23.353 309.145  23.914 309.221  24.733 309.366  24.999 309.359  25.701 309.268
  26.277  309.09  26.502 309.099  26.712 309.142  27.247 309.099  27.456 309.113
  27.528 309.119  27.866 308.935  28.093 308.839  28.196  308.81  28.266 308.794
  28.681 308.812  29.727 308.848  30.134 308.519  30.343 308.601  30.745 308.669
  30.811 308.776  30.998 308.688  31.922 308.489  32.046 308.499  32.087 308.503
  32.104 308.501   32.12 308.501  34.137  308.63  34.764 308.627   36.72  308.89
  37.579 308.869  39.279 308.779  39.432 308.765  39.679 308.785  40.793 308.787
  41.739  308.85  41.742  308.85  41.757 308.853  42.969 309.043  43.152 309.026
  43.458 308.935  43.543 308.974  43.709  308.94  43.737  308.94  44.179 308.948
  44.202 308.954  44.246 308.968  44.451  309.03  44.746  308.96  44.769 309.002
  45.007 308.944  45.107 308.986  45.416 308.741  45.762 308.623  45.909 308.579
   46.15 308.348   46.55 308.114  47.041 307.668  47.141 307.593   47.16 307.592
   47.21 307.506  47.269 307.425  47.451 307.242  47.865 306.829  47.917 306.743
  48.504 306.368   48.74 306.257  48.942 306.037  49.653 305.101  50.123 305.078
  50.316 305.126  50.486  305.16  51.114 305.175  51.891 305.038  52.035 305.012
  52.065  305.01  52.158 305.017  52.385 305.069  52.463  305.07  52.964 305.112
  53.472 304.981   53.61 304.967  53.735 304.997  54.215 305.183  54.587 305.153
  54.744 305.153  54.965 305.201  55.245 305.215  55.335 305.161  55.465 305.208
  55.736 305.186  55.865 305.152  55.894 305.159  56.873 305.189  56.946  305.19
  57.188  305.16  57.246 305.116  57.385 305.127  57.452 305.131  58.003 305.127
  58.293 305.128  58.385  305.13  58.443 305.142  59.124 305.224  59.452 305.245
   59.51 305.233  59.662  305.12  59.792  305.12  59.997 305.147  60.025  305.15
  60.045 305.151  60.629 305.188  60.755 305.171  60.948 305.217  61.188 305.273
  61.475 305.115  61.529 305.102  61.593 305.102  61.792 305.112  62.138 305.144
  62.254 305.137  62.408 305.124  62.826  305.07  63.173 305.154  63.609 305.239
  64.101 305.169  64.232  305.15  64.253 305.131  64.761  305.13  64.767 305.131
  64.992 305.148   65.01 305.205  65.262 305.198  65.467  305.15   66.45 305.044
  66.485 305.045  66.494  305.05  66.562 305.046  66.968 305.017  67.254 305.015
  67.308 305.008  67.316 305.008  68.041 305.062  68.063 305.063  68.067 305.062
  68.103 305.064  68.442 305.157  69.085 305.157  69.243 305.183  69.648 305.176
  70.073 305.035  70.126 305.043  70.386 305.226  72.722 305.895  74.956 306.712
  75.134 306.747   75.28 306.567  75.745 306.714  75.774 306.848  76.122 306.884
  76.264 306.888  76.331 306.891  76.633 306.951   77.95 306.762  78.318 306.749
  78.535 306.684  78.583 306.812  79.963 306.892  80.263 306.919  80.517 306.921
  80.625 306.882  80.875 306.968  81.253  307.21   81.32  307.27   81.55 307.314
  82.199 307.531  83.661 307.939  83.899 307.992  83.962  307.96  84.189 308.015
  84.346  307.99  84.743 307.912    84.9 307.913  85.282 307.902  86.336 307.821
  87.372 307.763  88.916 307.834  88.958 307.796  90.527 308.185  91.231 308.151
  92.367 308.092  93.213 307.909  93.309 307.929  93.382  307.92  93.692 307.942
  94.209 307.905  94.386 307.878  94.888  307.98  94.929 307.994  95.096 308.006
  95.272 307.996  95.351  307.99  95.443  307.98  95.591  307.95  96.051 307.819
  96.107 307.834  96.467 307.804  96.825 307.757  96.842 307.763  96.935 307.841
   97.19 307.863  97.495 307.893   97.61 307.872  97.772 307.858  98.416  307.76
  98.437 307.737  98.961  307.68  99.028  307.69  99.314 307.738   99.75 307.754
 100.004 307.741  100.13 307.723 100.589 307.749 100.812 307.782 100.927  307.78
  101.06 307.774 101.413 307.744 101.695 307.744 101.944 307.726 102.391 307.749
 102.507 307.714 102.834 307.635 103.127 307.603 103.259  307.58 103.563 307.618
 103.671 307.632 103.808 307.683 104.197 307.612 104.345 307.603 104.551 307.651
 104.745  307.69 105.003 307.732 105.824 307.803 105.887 307.805 106.207 307.827
 106.373 307.803 106.466 307.838 107.358 307.823   107.5 307.819  107.51 307.821
 107.638 307.817 107.839 307.797 108.239 307.769 108.442 307.769 108.605 307.734
 108.785 307.703  109.16 307.674 109.572 307.671  109.64 307.634 109.942 307.665
 110.198 307.664 110.403 307.689 110.489 307.677 110.868 307.694 110.935 307.703
 111.258 307.725 111.458 307.746 111.797 307.766 112.089 307.763 112.213 307.722
 112.737 307.696 113.081  307.76 113.292 307.736 113.484 307.717 113.928 307.766
 114.406 307.801 114.589 307.793 114.633  307.79
#Mann= 3 , 0 , 0 
       0      .1       0       0      .1       0 114.633      .1       0
Bank Sta=0,114.633
XS Rating Curve= 0 ,0
XS HTab Starting El and Incr=305.117,0.25, 20 
XS HTab Horizontal Distribution= 5 , 5 , 5 
Exp/Cntr=0.3,0.1

Type RM Length L Ch R = 1 ,496.7   ,90.73,90.73,90.73
XS GIS Cut Line=3