Geom Title=Site 364 geometry data
Program Version=5.07
Viewing Rectangle= 328740.38549469 , 329293.32427147 , 4286089.97041027 , 4285894.15819802 

River Reach=butler branch   ,RiverCL         
Reach XY= 40 
       328749.04      4286071.97       328771.25      4286061.51
       328784.51      4286047.92        328788.2      4286035.82
       328790.86      4286024.03       328805.27      4286012.28
       328818.29      4286001.46       328838.15      4285991.04
       328857.28      4285991.04       328887.83      4285991.04
       328909.15      4285995.53       328924.25      4286011.55
       328933.74      4286019.19       328945.03      4286024.15
       328956.56       4286021.5       328967.28      4286011.36
       328974.54      4285998.58       328984.17      4285981.62
       328993.13      4285973.06       329012.73      4285957.17
       329030.45      4285942.79       329065.89      4285929.82
       329076.06      4285933.74       329083.54      4285936.33
       329091.82      4285931.57       329102.59      4285931.57
       329112.34      4285938.59       329118.57      4285951.05
       329120.72      4285961.02       329129.81      4285974.45
       329145.68      4285986.23       329163.59      4285998.91
       329183.81      4286013.78       329200.82      4286027.76
       329211.59      4286037.62       329221.68      4286050.08
       329233.26      4286059.64       329245.82       4286066.2
       329257.75       4286066.2       329269.31      4286080.71
Rch Text X Y=329139.2425,4286078.525
Reverse River Text= 0 

Type RM Length L Ch R = 1 ,645.51  ,55.69,55.69,55.69
XS GIS Cut Line=3
 328797.556975824286086.26551929328773.8696951124286058.82428763
 328745.80646309 4286026.3136056
Node Last Edited Time=Jun/18/2019 14:29:09
#Sta/Elev= 195 
       0   8.328    .646   8.323    1.15   8.356   1.262   8.363   1.342   8.368
   1.788    8.41   2.149     8.4   2.477   8.398   2.727   8.368   3.103   8.301
    3.46   8.317   3.646   8.305   4.194   8.255    4.28    8.25   4.452   8.255
    4.61    8.27   5.084    8.26   5.693   8.276   6.165   8.295   6.641   8.223
   6.766   8.204   6.824   8.204   7.273   8.113   7.285    8.11    7.31   8.109
   7.326   8.108   7.977   8.094   8.267   8.104   8.638   8.146   8.869   8.136
    9.12   8.092    9.51    8.11   9.811   8.181  10.275   8.163  10.541   8.165
  10.864   8.191  11.649   8.212  11.756   8.213    12.8    8.18  13.309   8.194
  13.648   8.233  14.189   8.235  14.388   8.198  14.572   8.238  15.011   8.245
  15.293   8.183  15.849   8.111  16.417   7.983  16.737   8.017  17.137   8.005
  17.521   7.972   17.84   7.914  19.766   6.522  22.692   4.446  23.091   4.166
  23.351   3.975  23.371    3.97  24.056   3.705  24.238    3.63  24.422   3.629
  24.476   3.627  25.143   3.495  25.194   3.492  25.547    3.46  25.643   3.454
  26.632   3.385  27.793   3.555  27.875   3.538  27.921   3.578  28.139   3.403
  28.862   3.382  28.922   3.363  29.409   3.543  29.614   3.594  29.988   3.718
  29.992    3.72  30.118   3.728  30.752   3.802  31.208    3.87  31.457   3.856
  31.482    3.86  31.817   3.878  31.912   3.888  32.444   3.897  33.142   3.924
  33.417   3.923  33.701   3.886  34.375   3.872  34.505   3.841  35.441   3.718
  35.496   3.686  35.614   3.648  36.017   3.483  36.199    3.41  36.636    3.43
  37.339   3.465  37.749   3.519  38.027   3.557  38.578   3.574  38.717   3.585
  38.765   3.583  39.145   3.592  39.483   3.551  39.835   3.494  40.271    3.44
  40.549   3.417  40.725   3.364  40.957   3.298  41.513   3.105  41.646   3.059
  41.735    3.01  41.972   2.859  42.091   2.793  42.948   2.751  44.487   2.676
  45.291   2.667  45.973   2.852  46.745    3.09  47.268   3.247   49.45   3.364
   50.73   2.972  50.809   3.038  51.248   3.599  51.531   3.988  51.691   4.024
  51.864   4.042  51.958   4.039  52.539   4.057   52.63   3.962  52.669   3.959
   53.02   3.945  53.553   3.996  53.692   4.016  54.004   3.964  54.718   3.887
  55.331   3.895  55.506   3.896  56.566   3.873  57.016   3.884  57.812   3.922
  58.057   3.944  58.689   3.854  59.121   3.816  59.299   3.803  59.782   3.796
  60.055   3.864  60.775   3.921   61.38   3.903  61.496   3.878  61.938   3.855
  62.579   3.914  62.737   3.932  63.017   3.883  63.948   3.753  64.545   3.822
  65.078    3.78  65.258   3.768  65.863   3.663  65.945   3.648  66.021   3.645
  66.392   3.599  66.975   3.506   67.11   3.499  68.893   3.451   68.93   3.451
  68.932    3.45  68.938    3.45  69.584   3.461  69.599   3.461  70.063   3.519
  70.203   3.513  70.763   3.487  71.134   3.547  71.454   3.554  72.136   3.496
  72.239   3.477  72.434    3.49  73.751     3.4  74.352   3.415  74.652   3.398
  75.067   3.464  75.241   3.435   75.96   3.521  76.205   3.539  76.237   3.538
   76.51     3.5  76.852   3.444  76.932    3.45  77.371   3.389  77.966   3.352
  77.982   3.348    78.4   3.342  78.693   3.349   79.03    3.35  79.198   3.391
#Mann= 3 , 0 , 0 
       0     .03       0       0     .03       0  79.198     .03       0
Bank Sta=0,79.198
XS Rating Curve= 0 ,0
XS HTab Starting El and Incr=2.817,0.28, 20 
XS HTab Horizontal Distribution= 5 , 5 , 5 
Exp/Cntr=0.3,0.1

Type RM Length L Ch R = 1 ,589.82  ,59.52,59.52,59.52
XS GIS Cut Line=3
328831.8026410714286047.98838519328803.0467999294286014.09360543
328775.1402126614285981.19984918
Node Last Edited Time=Jun/18/2019 14:29:09
#Sta/Elev= 241 
       0   7.633    .344   7.541    .507   7.555    .918   7.709    .956   7.714
   1.264   7.614   1.918   7.558   2.339   7.476   2.758    7.54   2.829   7.543
   3.105   7.518   3.112   7.518   3.128   7.517   3.141   7.514   3.672   7.467
   4.898   7.351    5.01    7.35   5.392   7.325   5.569   7.326   5.979   7.265
   6.222   7.151   6.368   7.156   6.764   7.114   7.114   7.135   7.229   7.106
   7.416   7.065   7.834   6.898   8.219   6.853   8.333   6.833    8.43   6.821
   8.858   6.711   9.048   6.662   9.106   6.645   9.191    6.62   9.649   6.505
      10    6.33  10.299   6.194   10.69    6.07  10.942       6  11.267   5.908
  11.672   5.772  12.103   5.669  12.405   5.624   12.61   5.595  12.765   5.576
   13.01   5.563  13.284   5.531  13.813   5.221  13.892   5.191  14.284    5.13
  14.982   4.795  15.056   4.766  15.185   4.678  15.796   4.362  16.298   4.226
  16.369   4.269  16.491   4.175  16.636   4.117  16.766   4.088  17.155   4.029
  17.578   3.774  17.964   3.745  18.311   3.752  18.544    3.63  18.766   3.578
  18.994   3.565  19.208   3.585  19.276   3.555  19.399   3.578  21.055   3.929
  22.292   3.846  23.076   3.822  23.442   3.907  23.791   4.003  24.044   3.921
  25.948    3.76  26.454    3.74  26.512   3.721  26.696   3.689   26.86   3.678
  26.993   3.737  27.476   3.832  27.674     3.7  27.819   3.592  28.032   3.665
  28.589   3.806  28.899   3.804  29.529   3.773  29.606   3.776  29.839   3.785
  29.864   3.776  30.408   3.796  30.868   3.804  31.172   3.827  31.377   3.882
  31.458   3.892  32.162     3.9  32.258   3.902   32.88   3.985  32.988       4
  33.006   3.996  33.261   3.922  33.622    3.94  34.044    3.94  34.385   3.875
  34.616   3.875  34.997   3.851  35.084   3.833  35.766    3.91  35.848   3.916
  36.176   3.857  36.561   3.774  36.639   3.759  36.876   3.825  36.888   3.831
  36.969    3.79  37.026   3.756  37.678    3.49  38.079   3.205  38.476   2.845
  38.515   2.784  38.669   2.768  38.837   2.805  39.507   2.874  39.894   2.831
  40.311   2.863  40.842   2.821  42.097   2.962  42.159   2.962    42.5   2.944
  43.137   2.848  43.176   2.842  43.453   2.839  44.818   2.787  44.886   2.786
  44.929   2.778  44.994   2.782   45.86   2.783  46.105   2.807  47.043   2.817
  47.662    2.78  49.042   2.792  50.851   2.713   51.11   2.703  51.638   2.809
  53.233   3.595  54.036   3.254  54.057   3.241  54.176   3.365  54.566   3.868
   54.96   4.092  55.166   4.087    55.2    4.09   55.93    4.08  55.942    4.08
  55.945   4.081  57.012   4.145  57.305   4.153   57.61   4.181  57.768   4.199
  58.748   4.166  59.609   4.178  60.017    4.12  60.414     4.1  60.652     4.1
  61.236   4.166  61.431   4.171  62.111   4.164   62.17   4.158  62.176   4.162
  62.248   4.161  64.017   4.182  64.293   4.186  64.849   4.119  65.046   4.116
   65.62   4.045  65.634   4.078  65.804   4.037  65.849    4.02  66.317   3.983
  66.481   4.032  66.858   4.081  67.048   4.119  67.722   4.153  68.158   4.139
  68.682   4.092   69.27   4.046  69.447   4.029  69.682   4.068  69.689   4.067
  69.806   4.053  70.392   3.985  70.545   3.988  71.313    4.08  71.376   4.073
  71.495   4.079  71.734   4.093  72.188   4.073  73.135   4.103  73.255   3.904
  73.605   3.871  74.038   3.988  74.206   3.979  74.933   3.928  75.104   3.928
  75.831   3.897  75.846   3.896   75.91   3.896  76.033   3.895  76.947   3.903
  77.053   3.891  77.769   3.825  77.857   3.815  78.283   3.801  78.692   3.777
  78.954   3.752  79.192   3.704  79.682    3.63  79.717   3.637  80.723   3.565
  81.952   3.535  82.898   3.584  83.155   3.573  83.319   3.578   83.38   3.583
  83.623   3.627  84.023   3.693  84.201   3.727   84.38   3.711  84.994   3.649
   85.06    3.64  85.192   3.627  85.935   3.582  85.978   3.581  86.002   3.583
  86.126   3.592  86.803   3.604  86.981   3.603  87.063   3.577  87.266    3.59
  87.586   3.656
#Mann= 3 , 0 , 0 
       0     .03       0       0     .03       0  87.586     .03       0
Bank Sta=0,87.586
XS Rating Curve= 0 ,0
XS HTab Starting El and Incr=2.853,0.24, 20 
XS HTab Horizontal Distribution= 5 , 5 , 5 
Exp/Cntr=0.3,0.1

Type RM Length L Ch R = 1 ,530.3   ,43.6,43.6,43.6
XS GIS Cut Line=3
      328853.925     4286023.775328855.4348970314285991.04215654
328857.3957142864285948.53387755
Node Last Edited Time=Jun/18/2019 14:29:09
#Sta/Elev= 197 
       0       6   2.029   5.378   2.962    4.67   3.421   4.355    3.78   4.219
   4.002   4.211   4.294   4.109   4.427   4.118    4.55   4.076   4.746   4.123
   5.267   4.131   5.746   3.934   6.028   3.736   6.184   3.738   6.645   3.749
   6.878   3.724   7.109   3.817   7.457   3.805    7.67   3.786    7.73   3.796
   7.928   3.751   8.417   3.719   8.475    3.72    8.99   3.686   9.514   3.631
   9.517    3.63    9.52   3.631   9.526   3.631  10.273   3.677  10.972   3.682
  11.019   3.698  11.155   3.671  11.514   3.623   11.63   3.625  12.162   3.716
    12.8   3.681  13.099   3.591  13.437   3.557  14.166   3.607  14.515   3.628
  14.592   3.614  14.782   3.633  16.536   3.737  16.928   3.726  17.397   3.835
  17.925    3.94  18.234   3.914  19.168   3.806   19.36   3.788  19.585   3.823
  20.736   3.862  20.946   3.902  21.026   3.921  21.513   4.041  22.039    4.06
   22.04    4.06  22.365   4.062  22.472   4.053   22.83   4.076  23.262   4.111
  23.406   4.121  23.483   4.099  24.178   4.057  24.841   4.044  25.421   4.016
  25.501   3.953  25.629   3.927  26.231   3.794  26.559   3.784  27.117   3.757
  27.174   3.759  27.325   3.781   28.66   4.039  28.958    4.02  29.645   4.079
  29.965   3.924  30.368    3.74  30.846    3.79  31.579   3.808  32.155   3.864
  34.487   3.969  34.642    3.98  34.741   3.977  35.982    3.93  35.998   3.913
   36.04   3.909  38.334   2.929  38.717       3  38.761   2.979  40.449   2.894
  40.609   2.882   40.82   2.852  40.871   2.851    41.5   2.851  41.607   2.835
  41.916   2.858  42.334   2.878  42.427   2.881  42.553   2.884  42.846    2.89
  42.887   2.892  43.085     2.9  43.408   2.908  43.547   2.908  43.767   2.912
  43.992     2.9  44.341   2.876  44.557   2.872  45.197   2.894  45.278   2.899
  45.304     2.9  45.392   2.897  45.492   2.888  45.806   2.872  46.156   2.828
  46.205   2.882  46.594   2.913  47.971   3.124   48.82   3.249  48.993   3.196
  49.296   3.728  49.415    3.85   49.93   4.148  50.093    4.24  50.202   4.236
  50.365   4.262  50.412   4.263  51.194   4.297  51.586   4.303  52.117   4.263
  52.172    4.26  52.921   4.302  53.311   4.304  53.385   4.302  53.461   4.304
  53.944   4.238  54.995   4.295  55.122   4.298  55.536   4.236  56.012   4.211
  56.469   4.193  56.617   4.184  56.873   4.186  57.257   4.175  57.944   4.179
  58.021   4.154  58.363   4.094  58.779   4.145  58.789   4.148  59.287    4.14
  59.404   4.128  59.454   4.162  59.583   4.166  59.641   4.162  60.444     4.1
  60.675   4.071  61.119   4.062  61.203   4.063  61.361   4.064  61.805   4.098
  61.837   4.074  62.388   4.021  62.612   4.008  62.688   4.003  62.887   3.999
  63.503   4.048  63.891    4.06  63.932   4.066  64.108   4.085  64.222   4.085
   65.71   4.081  65.987   4.053  66.606    4.05  66.865    4.04  67.858   4.074
   68.09    4.04  68.394   3.975  69.108   4.016  69.195   4.052  69.221   4.055
  69.325   4.082  69.333   4.079  69.597   4.071  71.196    3.97  71.274   4.024
  71.744   3.957  71.988   3.945  72.164   3.993  72.345    4.01  72.855    4.05
  72.952   4.104  73.677   3.948   73.71   3.944  73.714    3.94  73.744   3.938
  74.787    4.04  75.321       4
#Mann= 3 , 0 , 0 
       0     .03       0       0     .03       0  75.321     .03       0
Bank Sta=0,75.321
XS Rating Curve= 0 ,0
XS HTab Starting El and Incr=2.978,0.15, 20 
XS HTab Horizontal Distribution= 5 , 5 , 5 
Exp/Cntr=0.3,0.1

Type RM Length L Ch R = 1 ,486.7   ,63.84,63.84,63.84
XS GIS Cut Line=3
       328890.61      4286037.97328898.7976803854285993.35328183
328908.2809714284285941.67645714
Node Last Edited Time=Jun/18/2019 14:29:09
#Sta/Elev= 321 
       0       6   1.574   4.973   2.451    4.62   2.825   4.405   3.583   3.672
    3.75   3.655   3.858   3.655   4.117    3.65   4.264   3.638   4.755   3.736
   4.945   3.731   5.129   3.711   5.439   3.686   5.829   3.675   5.971   3.669
   6.719   3.626   6.753   3.623   6.883   3.616   7.071   3.611   7.124   3.615
   7.961    3.65   8.178   3.618   8.515     3.6     8.8   3.615   8.913   3.616
   9.049   3.617    9.36   3.584   9.709   3.561  10.345   3.587  10.399   3.591
  10.467   3.599  10.652     3.6  10.906   3.582  11.085   3.602  11.391   3.622
  11.534   3.628  11.613    3.62  12.037   3.604  12.473   3.596  12.695   3.582
  12.781   3.597  13.406   3.668  13.587   3.647  13.852    3.66  14.118    3.68
  14.282   3.701   14.89   3.653  14.944    3.65  14.952   3.652  15.197    3.72
  15.377   3.743  15.819   3.768  16.051   3.809  16.134   3.812  16.623    3.73
  16.708   3.733   16.82   3.752  17.107   3.788  17.457   3.737  17.866   3.781
  18.044   3.809  18.619   3.857  18.718   3.865  18.926   3.882  19.034   3.893
  19.087   3.888   19.14   3.891  19.826   3.909  20.264   3.875  20.611   3.874
  20.699   3.883   21.28   3.975  21.384   3.975  21.559   3.986  21.814   3.987
  22.527   3.974   22.69   3.975  22.843   3.975  23.264       4  23.388   4.005
  23.543   3.992  23.725   4.003  23.931   3.997  24.273   3.974  24.573   3.958
  24.702   3.967  25.116   3.987  25.128   3.985  25.345   3.967  25.995   3.928
  26.186   3.925  26.296   3.918  26.642   3.963  27.057   3.993  27.187   3.972
  27.683   3.999  27.746   4.012  27.992   3.949   28.45   3.961   28.56   3.969
  28.874   3.951  28.886   3.948  28.963   3.954  29.287   4.011  30.181   4.148
  30.456   4.178   30.65   4.134  31.051    4.08  31.234   4.089  31.655   4.168
  31.974   4.241  32.347   4.131  32.646   4.032  32.776   4.022  32.896   4.036
   33.72   4.046   34.25   4.114  34.641   4.143  34.984   4.247  35.609   4.223
  36.068   4.177  36.197   4.161  36.475   4.186  36.838    4.22  36.885   4.223
  36.996   4.226  37.382   4.231  37.746   4.253  37.897    4.25    38.7    4.25
  39.065   4.278  40.493   4.281  40.544   4.284  40.599   4.248  40.625   4.176
  41.819   3.131  42.044   3.053  42.352   3.084  42.791   3.125  42.845   3.086
  42.908   2.987  43.159   3.138  43.545    3.22  43.654   3.025  43.688    3.04
  44.219   2.989   44.34   2.983  44.479    3.02  44.487   3.026  44.552   3.026
  45.373   3.066  45.493    3.04  46.224   3.031  46.247   3.029  46.466   2.991
  46.542   2.992  46.646   2.998  47.231   3.022  47.352    2.99  47.834   3.007
  48.147   3.018  48.227   3.009  48.252   3.015  48.838   2.985  49.072   2.987
  49.293    3.03  49.513    3.03  49.709   3.025  50.199   3.039  50.302   3.038
  50.597   3.041  51.019    3.05  51.426   3.099  51.547   3.047  51.667   3.067
  52.255   3.117  52.291   3.121  52.379    3.13  52.416   3.147  52.537   3.202
   52.54   3.203  52.615   3.226  53.164   3.411    53.5   3.475  53.757   3.507
  53.812   3.516  53.954   3.552   54.17   3.567  54.615   3.587   54.84   3.586
  55.534   3.568  55.723   3.559   55.77   3.553  56.078   3.497  56.263   3.423
   56.63   3.416  56.652   3.407  57.107   3.419  57.609   3.429  57.689   3.445
  57.737   3.456  57.842   3.555  58.079   3.427  58.533   3.394    58.6   3.571
  58.666   3.547  58.986   3.473  59.371   3.493  59.508   3.505  60.006    3.52
  60.222   3.593  60.387   3.796  60.716   3.949  61.364   4.217  61.564   4.234
   61.98   4.234  62.908    4.25  63.079   4.264  63.436    4.23  63.846   4.282
  63.979   4.297  64.434     4.2  64.601   4.242  64.995   4.356  65.274   4.365
  65.571   4.363  65.962   4.256  66.016    4.24  66.041   4.246  66.364   4.343
  66.759    4.29  67.279   4.319  67.648   4.317  67.842   4.231      68   4.173
  68.164   4.149  68.831   4.204  69.489   4.263  69.684   4.271  69.729   4.243
  71.147   4.201  71.469    4.22  71.989   4.192  72.108    4.19   72.21   4.189
  73.131   4.177  73.698   4.107  73.845   4.096  73.929   4.124  74.026   4.109
  74.676   4.084  75.078   4.138  75.104   4.122  75.217   4.129  75.475   4.159
  75.676   4.165  76.075    4.14  76.478    4.14  76.643   4.154  76.999   4.164
   77.08   4.164  77.644   4.191  77.876   4.208  77.965    4.19   78.08   4.154
  78.602   4.033  78.705   4.014  79.432   4.132  79.535   4.152  79.672   4.156
  80.561   4.164  80.876   4.181  81.565   4.206  81.781   4.158  82.178    4.13
  82.532   4.099   82.81   4.015  83.421    4.01   83.58   4.018  83.959   3.982
  83.976    3.99  84.174   3.985  84.718   4.014  84.858   4.011  84.978   3.982
  85.505   4.031  85.766   4.067  85.913   3.965  86.295   4.029  86.704   4.121
  86.769   4.089  87.276   4.128  87.655   4.088   87.82   4.117  88.736   4.091
   89.11   4.112  89.237   4.024  89.388   3.984  90.413   3.727  91.303   3.868
  91.438    3.91  91.736   3.928  92.246   3.953  92.676    3.94  92.953   3.954
  93.047     3.9  93.201   3.923  93.393   3.932  93.929   3.916  94.027    3.93
   94.95   3.983  95.533   4.021  95.749   4.006  96.239   3.997  96.529   4.059
  96.785   4.102    96.9   4.075  97.117   3.981   97.41   3.995  97.661   4.006
  97.902       4
#Mann= 3 , 0 , 0 
       0     .03       0       0     .03       0  97.902     .03       0
Bank Sta=0,97.902
XS Rating Curve= 0 ,0
XS HTab Starting El and Incr=3.133,0.14, 20 
XS HTab Horizontal Distribution= 5 , 5 , 5 
Exp/Cntr=0.3,0.1

Type RM Length L Ch R = 1 ,422.86  ,59.92,59.92,59.92
XS GIS Cut Line=3
328964.1860492144286063.77520343328951.594889868 4286022.6385406
   328939.136875  4285981.936875
Node Last Edited Time=Jun/18/2019 14:29:09
#Sta/Elev= 244 
       0       4    .123   3.993    .578   4.044    .712   3.992   1.079   3.952
   1.122   3.954   1.566   3.919   1.635   3.919   2.135    4.08   2.197    4.09
     2.3   4.082   2.743    4.09   2.972   4.118   3.306   4.153   3.559   4.201
   3.806   4.309   4.373   4.431   4.396   4.426    4.89   4.299   4.921   4.304
   5.072   4.298   5.581   4.259   5.651   4.272    5.93    4.29   5.979   4.292
   6.598    4.36   6.885   4.381   7.119   4.394   7.137   4.397   7.144   4.397
   7.316     4.4     8.7   4.373   9.067   4.364   9.775   4.415  10.004   4.425
  10.079   4.403  10.505   4.403  11.048   4.456  11.326   4.448  11.483   4.464
  12.243     4.4  12.841     4.4  13.253   4.317   13.43   4.356  13.809   4.296
  14.172   4.329  14.432   4.372  15.478   4.496  16.178   4.543  16.568   4.499
   17.15   4.534  18.449    4.45  18.983   4.473  19.923   4.514  20.703   4.303
  20.941   4.236  21.595    4.07  21.809   4.138  22.357   4.132  22.749   4.075
  23.133   4.106  23.308   4.104  23.531   4.094  24.587   4.024  25.009   4.047
  25.517   4.085    25.6   4.052  26.016   4.029  26.629   4.022  26.715   4.037
  27.163   4.072   27.38   4.037   27.71    4.03  27.804   4.031  27.844   4.037
  28.054    4.03  28.497   4.023  28.572   4.035  28.681   4.046  29.775   4.055
  29.856   4.043  29.971   4.049  30.862   4.356  30.871   4.363  30.915   4.368
  30.938   4.367  32.673   4.273  32.729   4.267  33.603   4.264  33.898   4.289
  34.368   4.371  34.431    4.37  34.532   4.355  35.145   4.235  35.473   4.008
   36.21   3.575  36.451   3.516  36.512   3.492  36.552   3.575  37.066    3.37
  37.152   3.325  37.624   3.257  38.248   3.262  38.741   3.269  39.139    3.23
  39.261   3.221  39.869   3.195  40.016    3.19  40.275   3.186  40.475   3.196
  40.696     3.2  40.821   3.201  40.939   3.202  41.501   3.215  41.888   3.258
  41.917   3.262  42.009   3.268  42.113   3.265  42.566   3.279  43.062   3.295
  43.138   3.274  43.562   3.191  44.239   3.281  44.334   3.286  44.552    3.29
  44.733   3.281  46.526   3.223  46.672    3.25  47.541    3.37  47.807   3.431
  48.121    3.56  48.463   3.701  48.623   3.757   48.83   3.841   49.28   3.976
  49.704   4.106  49.793   4.116  49.999   4.157  50.241   4.213  50.686    4.23
  50.808    4.23  50.874   4.225   50.91   4.214  51.121   4.183  51.748   4.285
  51.958   4.314  52.024   4.314  52.274   4.278  52.374   4.297  53.265   4.369
  53.365    4.36  53.647   4.346  53.909   4.342  54.256   4.314  55.264   4.211
  55.282    4.21  55.292   4.209  55.598   4.203  56.182   4.249  56.356   4.255
  56.458   4.264  56.685   4.265  56.973   4.272   57.48   4.266  57.574   4.253
  57.885   4.213  58.145   4.267  58.532   4.301  58.755   4.275   58.98   4.253
  59.502   4.213  59.851   4.246  60.168   4.212  60.746    4.17  61.206   4.158
  61.712   4.125   62.03   4.087  62.389   4.123  62.807   4.126  63.487   4.068
  63.918   4.033  63.981   4.021   64.23   3.988  64.644   3.852  65.544   3.982
  65.765   4.049  65.999   4.009  66.269   3.959  66.533   3.828  66.888   3.809
  67.263   3.748    67.3   3.738  67.899   3.588  68.384   3.546  68.432   3.537
  68.498   3.539  70.204    3.52  70.474    3.52  70.652   3.495  71.099   3.491
   71.65   3.585  71.919    3.68  72.681   3.794  72.758   3.806  72.769   3.802
  72.902   3.835  73.747   4.006  73.851   4.019  73.984   4.052  74.202   4.082
  74.434   4.139  74.613   4.109  74.857   4.205  75.292   4.244  76.038   4.254
  76.171   4.267  76.188   4.262  77.159   4.297  77.324    4.31   77.36   4.308
  78.237   4.358  78.917    4.34  79.188   4.341  79.363   4.366  79.667   4.385
  80.483   4.268  80.707   4.266  80.748   4.263  81.401    4.23  81.522   4.228
  81.568   4.227  81.621   4.223  82.756   4.222  82.806   4.218  83.693   4.323
  83.839   4.339  83.846    4.34  83.862   4.339  84.318   4.277  84.581    4.27
  84.785   4.266  84.808   4.261  84.886   4.273  85.586    4.23
#Mann= 3 , 0 , 0 
       0     .03       0       0     .03       0  85.586     .03       0
Bank Sta=0,85.586
XS Rating Curve= 0 ,0
XS HTab Starting El and Incr=3.336,0.06, 20 
XS HTab Horizontal Distribution= 5 , 5 , 5 
Exp/Cntr=0.3,0.1

Type RM Length L Ch R = 1 ,362.94  ,56.24,56.24,56.24
XS GIS Cut Line=3
329017.167677747 4286021.3050572 328988.414496324285977.56774371
328959.8357142864285934.09571429
Node Last Edited Time=Jun/18/2019 14:29:09
#Sta/Elev= 276 
       0       4    .455   3.879    .568   3.894    .697   3.837   1.038    3.88
   1.314   3.891   1.545   3.916   1.691   3.913   1.888   3.872   2.347   3.924
   2.459    3.95   2.517   3.952   2.884   3.974   3.309   3.963   3.647       4
   3.928   4.018   4.309   3.967   4.837   4.029   4.853   4.029   4.869   4.031
   5.331   4.078   5.495   4.076   5.754   4.043   6.335   4.032   6.937   4.038
    7.23    4.01     7.5   3.936   7.689   3.955   7.949   4.104   8.114   4.176
     8.3    4.22   8.833   4.126    9.09   4.186   9.395   4.266  10.193   4.158
  10.399   4.159  10.791   4.199  11.038   4.213  11.156   4.198  11.882    4.24
  12.297   4.224  12.632   4.236  12.844   4.225  13.197   4.305   13.43   4.319
  13.662   4.354  13.805   4.346  14.261   4.344  14.461   4.317  14.562    4.34
  15.593   4.339   15.66   4.338  15.709   4.334  17.023   4.252  17.192    4.25
  17.312   4.285  17.538   4.325  17.887   4.308  18.416   4.305  18.502   4.294
   18.57   4.303  19.144   4.317  19.269   4.317  19.426   4.311  20.133   4.291
  20.199   4.311  20.422   4.421  20.458   4.424  20.542   4.427  22.118   4.303
  22.399   4.306  22.825   4.391  22.841   4.396  23.013   4.407  23.181   4.402
  23.321   4.398  23.485   4.406  23.964   4.448  24.029   4.454  24.677   4.492
  24.937   4.516  25.326    4.47  25.847   4.444  26.464    4.41  27.184   4.364
  27.519   4.388  27.822   4.354  28.366   4.366  28.643    4.39  28.664   4.388
  28.782   4.328  29.305   4.428  29.697   4.487  30.195   4.465  30.593   4.444
  31.232   4.484  31.575    4.52  31.971   4.513  32.477   4.483  32.739   4.502
  33.469   4.524  33.739   4.529  34.366   4.558  34.598   4.549  34.665    4.54
  35.392   4.504  35.715   4.535  36.676   4.568  37.279   4.524   37.63   4.594
   38.17   4.708  38.287   4.704  38.396    4.66  39.164   4.591  39.515   4.531
  40.081   4.552  41.055    4.57  41.062    4.57  41.072   4.565  42.953   4.232
  43.133   4.227  43.834   3.447  43.874   3.432  44.834   3.304  45.287   3.362
  45.697   3.368  46.211    3.31  46.744   3.325  47.449   3.327  49.081   3.353
  49.444   3.331  49.557   3.312  49.842   3.314    50.5   3.314  50.791   3.306
  51.398   3.291  52.025   3.317  52.062   3.319  52.424   3.348  52.683   3.334
  53.367   3.346  53.763    3.32  54.321   3.289  54.668    3.29  55.233   3.356
  55.519   3.342  56.185    3.29  56.703   3.291  57.113   3.286  57.754   3.255
  58.643   3.238  59.106   3.242  60.035   3.252  60.959   3.353  62.823    3.42
  63.083   3.695  63.614   4.117  63.927   4.181  64.596   4.487  64.695   4.513
  64.829    4.56  65.207   4.531  65.601   4.493  65.733   4.491  66.198   4.516
  66.224   4.518  66.291   4.525  66.803    4.54  67.343   4.542  67.515   4.548
  67.563   4.537  68.008   4.488   68.47   4.433  68.498   4.438   68.59   4.456
  68.926   4.582  69.314   4.593  71.007    4.58  71.033   4.583  71.058   4.574
  71.382   4.524  71.847   4.529  72.103    4.53  72.276   4.555  72.514    4.56
  72.804   4.571  73.265   4.577  73.963   4.545  74.707    4.53  74.994   4.541
  75.133   4.716  75.444   4.698  75.991   4.567  76.033   4.571  76.444   4.592
  77.015   4.615  77.053   4.602  77.226   4.612  77.308   4.617  77.957   4.594
  78.525   4.479  78.851   4.527  79.186   4.643  79.509   4.659  81.151   4.696
  81.787   4.676  82.576   4.635  82.712   4.433  82.997   4.418  83.688   4.449
  84.166   4.379  85.574   4.271  85.627    4.27  85.741   4.271  85.919   4.331
  86.581   4.424  86.725   4.473  87.546   4.055   87.73    4.03  87.948    4.04
  88.157    4.14  88.515   4.203  89.006   4.312  89.237   4.318  89.453   4.294
  89.495   4.272  89.604    4.15  90.098   4.102  90.498   4.133  90.625   4.135
  90.983   4.124  91.359   4.104  91.485   4.071   91.55   4.057  92.053   4.096
  92.477     4.1  92.509   4.098  93.284   4.177    93.7   4.199  93.862   4.196
  94.437   4.306  94.463   4.312  95.175   4.401  95.412   4.363  95.442   4.361
  95.486    4.37  96.422   4.451  96.426    4.45  97.057   4.606  97.145   4.593
   97.43   4.528  97.758   4.571  98.045   4.586  98.903   4.706  98.929    4.71
  98.941   4.708  99.418   4.625  99.751   4.775  99.995   4.783 100.202   4.762
 100.356   4.751 100.702   4.759 100.881   4.774 101.264   4.792 101.362   4.795
 101.795   4.753 101.861   4.756 101.945   4.756 102.309   4.818 102.645   4.824
 102.764    4.84 103.137   4.809 103.556    4.88 103.763   4.843 104.029   4.778
 104.367   4.719
#Mann= 3 , 0 , 0 
       0     .03       0       0     .03       0 104.367     .03       0
Bank Sta=0,104.367
XS Rating Curve= 0 ,0
XS HTab Starting El and Incr=3.388,0.07, 21 
XS HTab Horizontal Distribution= 5 , 5 , 5 
Exp/Cntr=0.3,0.1

Type RM Length L Ch R = 1 ,306.7   ,81.64,81.64,81.64
XS GIS Cut Line=3
329055.031666667      4285993.35329032.0110520374285942.21815753
329011.2377638644285896.07792559
Node Last Edited Time=Jan/12/2021 20:06:19
#Sta/Elev= 243 
       0   8.665    .649   8.677    .972   8.643   1.294   8.634   1.427   8.624
   1.807   8.636   2.061   8.622   2.383   8.647   2.558   8.641   2.644   8.654
   3.416   8.454    3.51   8.424    3.76   8.411   4.307   8.592   4.689   8.438
   5.516   8.335   5.847   8.356   6.122   8.351   6.654   8.263   6.816   8.247
    7.18   8.213   7.286   8.238    7.83   8.206   8.063   8.192   8.354   8.235
   8.459   8.263   8.707   8.239   9.037   8.167   9.427    8.05   9.867   7.986
  10.155   7.932  10.452   7.906  10.556    7.89  10.693   7.891  11.211   7.889
  11.751   7.819  11.993   7.803  12.182   7.802  12.817    7.82   12.95   7.822
    13.3   7.771  13.687   7.735  13.801   7.718  13.838   7.715  13.985   7.644
   14.38   7.598  14.819   7.708  14.838   7.703  15.211    7.48  15.391   7.511
  16.034   7.648  16.624   7.831  16.722   7.796  17.605   7.452   18.05   7.369
  18.368   7.319  19.045   7.307  19.847   7.475  20.025    7.49  20.491   7.292
   20.73    7.21  20.932   7.179  21.753   7.207  22.162   7.193  22.821   7.153