Flow Title=flow data
Program Version=5.07
Number of Profiles= 1 
Profile Names=PF 1
River Rch & RM=butler branch,RiverCL         ,645.51  
       7
Boundary for River Rch & Prof#=butler branch,RiverCL         , 1 
Up Type= 0 
Dn Type= 3 
Dn Slope=0.0013
DSS Import StartDate=
DSS Import StartTime=
DSS Import EndDate=
DSS Import EndTime=
DSS Import GetInterval= 0 
DSS Import Interval=
DSS Import GetPeak= 0 
DSS Import FillOption= 0 
