Geom Title=Site 1423 Geometry Data
Program Version=5.07
Viewing Rectangle= 502136.94708692 , 502927.74422108 , 320627.268418878 , 320164.495747545 

River Reach=big durbin creek,RiverCL         
Reach XY= 42 
        502144.7       320461.66       502166.91       320468.26
       502182.83       320465.85       502200.32       320457.06
       502219.34       320457.06        502238.4       320457.06
       502262.81       320449.94       502278.41       320449.94
       502304.23       320445.19       502326.02       320438.91
       502350.84       320430.22       502356.73       320414.37
       502380.42       320390.88       502402.34       320376.12
       502429.99       320357.49       502468.57       320344.15
        502552.1       320316.08       502583.05       320309.29
       502599.35       320303.86       502614.79       320295.88
       502621.61       320297.58       502641.95       320311.08
       502661.54       320311.08       502681.58       320307.86
       502696.13        320305.4       502709.63       320306.93
       502727.71       320303.54       502748.55       320300.41
       502766.39       320303.05       502785.17       320310.44
       502801.98       320317.06       502810.98       320326.99
       502825.37       320340.83       502841.44       320358.26
       502851.74       320361.59       502859.78       320359.62
       502871.71       320347.92       502895.11       320338.69
       502904.86       320319.21       502905.21       320294.16
       502908.55       320286.86       502919.61       320280.51
Rch Text X Y=502338.4275,320416.3725
Reverse River Text= 0 

Type RM Length L Ch R = 1 ,846.38  ,70.51,70.51,70.51
XS GIS Cut Line=3
502872.537596856320303.241662797502901.601680788320325.713478262
   502919.991308      320339.932
Node Last Edited Time=Jun/13/2019 15:20:33
#Sta/Elev= 142 
       0  62.738   1.042  62.655   1.083  62.6471.399002  62.6441.785999  62.641
1.877003   62.642.610001  62.6422.988003  62.6474.107002  62.6284.129002  62.627
4.148003  62.6274.682003  62.717   5.659  62.7846.588001  62.6566.759003  62.656
7.132999   62.668.136002  62.6528.335003  62.6528.551003  62.661   9.167  62.685
   9.513  62.707  10.054  62.726   11.85    62.7  11.895    62.7  12.414  62.708
  12.718  62.703  13.409  62.671  13.654  62.657  13.807  62.669   14.44  62.673
  14.732  62.749  17.017  62.552  21.396  62.178  22.527  62.219  23.749  62.052
  23.772   62.05  23.774  62.055    23.8  62.059  23.806  62.117  23.878  62.208
   25.04  62.281  25.175  62.306  27.356  62.438  27.407  62.438  27.442   62.44
  27.448  62.441  27.455  62.441  27.462   62.44  27.474   62.44  27.487  62.438
  27.506  62.438  27.529  62.436  27.573  62.434  27.835  62.429  27.941  62.414
    28.1  62.395  28.211  62.383  28.303  62.384  28.795  62.344  29.089  62.363
  29.142  62.371   29.94  62.311  29.985   62.31  30.295  62.264  30.469  62.239
  30.495   62.24  30.515  62.232  30.574  62.223  30.685  62.206   31.49  62.096
  31.649  62.081  31.717  62.075  31.904  62.073  32.211  62.064  32.263  62.076
  32.282  62.077  32.419  62.054  32.508  62.053  32.634  62.039  33.231  62.042
  33.447  62.043  33.672  62.037  33.754  62.042  33.775  62.039  33.786  62.043
   33.93  62.031   34.01  62.027  35.014  61.958  35.356   61.94  35.405  61.945
   35.66  61.948  35.662  61.947  35.665  61.947  36.483  61.953  36.739  61.969
  36.755   61.97  37.157  61.992  37.196  61.991  40.945   62.08  41.481  62.066
  41.573  62.023  41.727  62.017  42.301  62.701  42.354  62.741  42.475  62.736
  42.498   62.72  42.548  62.583  43.991  62.682  44.354  62.809  45.503  62.803
  45.767  62.744  45.788  62.742  45.807  62.739  45.816   62.74  45.824   62.74
  45.828  62.741  45.832  62.741  45.972  62.786  46.281  62.786  46.975   62.78
  47.391   62.81  48.772  62.874  49.401  62.929  49.541  62.913   50.45  62.992
  50.669   63.04  50.794  63.029  52.255  62.958  52.915  62.953  52.953   62.96
  53.044  62.983  53.928  62.779  53.992  62.758  54.349  62.733  54.916   62.74
  55.336   62.87  56.894  63.241  57.295  63.186  58.027  62.896  58.215  62.889
  58.414  63.106  59.984  63.535
#Mann= 3 , 0 , 0 
       0     .03       0       0     .03       0  59.984     .03       0
Bank Sta=0,59.984
XS Rating Curve= 0 ,0
XS HTab Starting El and Incr=62.09,0.07, 21 
XS HTab Horizontal Distribution= 5 , 5 , 5 
Exp/Cntr=0.3,0.1

Type RM Length L Ch R = 1 ,775.87  ,98.09,98.09,98.09
XS GIS Cut Line=3
502850.656317461320256.487083796502846.161215973320359.786029537
 502841.58307023320464.993360225
Node Last Edited Time=Jun/13/2019 15:20:33
#Sta/Elev= 449 
       0  63.542.2019958  63.532 .572998   63.521.564987  63.4841.687988  63.479
1.735001  63.4752.220001  63.474   2.834  63.4583.136993  63.4463.294998  63.442
3.785995  63.4294.855988  63.391   4.903  63.3894.938995  63.3885.610001  63.352
6.136993   63.32 6.68399  63.2916.968994  63.2777.209991  63.2668.011993  63.227
8.328995  63.2138.912994    63.29.062988  63.1979.202988  63.192  10.189  63.151
10.40599  63.14310.92599  63.118  11.633  63.09511.75999  63.09211.93199  63.087
  12.392  63.08313.31499  63.05313.42999   63.05  14.008   63.0314.12599  63.022
14.35599  63.023  15.011  63.022   15.34  63.03416.35699  62.948  16.427  62.945
  16.489   62.94  16.536  62.93917.17299  62.92617.75999  62.89918.12399  62.885
18.53299  62.871  18.681  62.87118.92799  62.86619.48199  62.849  20.064  62.815
20.08299  62.81320.10899  62.81321.14099  62.789  21.582  62.78722.49899  62.762
   22.53  62.761  23.366  62.72423.89099  62.70624.14299  62.692  24.774    62.7
26.30699  62.68826.85399  62.68226.94499  62.68227.04399   62.67  27.103   62.67
  27.418  62.66628.06299  62.64828.50099  62.624  28.592  62.615  28.763    62.6
29.76599  62.586  30.478  62.579  30.586  62.56530.66699  62.565  32.032  62.692
32.04399  62.694  32.086  62.695  32.752   62.72  33.207  62.73734.60899  62.846
  34.612  62.846  34.718  62.839  35.149  62.80735.15999  62.80735.75999  62.886
  35.806  62.88335.93199  62.878  37.429  62.83137.81099  62.81138.37999  62.711
39.73599   62.6739.85399  62.671  39.924  62.68140.55699  62.642  40.823  62.609
40.98099  62.612  41.241  62.619  41.782  62.61341.89799  62.617  41.968  62.623
42.21899  62.63343.64099  62.75844.08899  62.76244.60199  62.73745.02299  62.721
  45.543  62.746  45.713  62.75545.73199  62.75546.32399  62.74346.32899  62.743
46.34799  62.74447.39699  62.776    47.7  62.76848.56799  62.71148.92799  62.711
50.35199  62.76950.43199  62.769  50.506  62.76751.33899  62.838  51.776  62.802
51.84399    62.852.01999  62.809   52.75  62.758  53.207  62.81353.43799  62.808
54.22699  62.769  54.411  62.774  55.213  62.768  55.584  62.753  55.707  62.752
  56.558  62.756  57.308  62.76457.45599  62.748  57.754   62.74  58.064  62.755
  59.015  62.788  59.638   62.7160.15799  62.62860.33099  62.602   60.89  62.501
  61.411  62.472  62.278  62.448   62.37  62.42162.45099   62.4263.27899  62.151
63.72899  62.175  63.858  62.19564.14699  62.22964.91499  62.311  65.177  62.357
  65.457  62.40466.61699   62.5966.72499  62.606  66.774   62.61  67.687  62.721
  67.806  62.724  68.506  62.771  69.209  62.81569.26799   62.82   69.33  62.819
69.83499  62.83970.19499   62.8470.67299  62.839  71.082  62.84371.34399  62.852
  71.935  62.84272.48999  62.837  73.668  62.826  73.825  62.82773.87199  62.825
73.90199  62.826  74.491  62.833  75.095  62.83175.84999  62.82776.20799  62.824
76.69499  62.825  77.222  62.82777.45299  62.83177.72299  62.827  78.295  62.816
78.70799  62.815  79.123  62.821  79.336  62.823  79.646  62.82580.91899  62.847
81.04299   62.8581.28799  62.854  81.826   62.86  82.257  62.852  82.478  62.855
  82.644  62.852  83.463  62.87183.70599  62.87884.20899  62.912   84.74  62.931
85.14799  62.925  85.437  62.913  86.103  62.83186.47099  62.79286.73599  62.755
88.20399  62.64188.45499  62.642  88.714  62.63689.54099  62.96390.27599  62.854
90.87599  62.971   91.23  62.996  93.336      63  93.589  62.99693.62099  62.987
94.10899  62.904  95.229    62.7  95.684  62.62997.84899  62.16498.19499  62.147
98.43199  62.12199.13699  62.075  99.503  62.068  99.854  62.063  100.17  62.058
 100.634  62.035 101.379  62.007 101.604      62 101.878  62.036 102.191  62.043
 103.397  62.098 105.144  62.176 107.567  62.061   107.9  62.136 108.271   62.16
 111.332  62.842 112.106  62.824 112.177  62.824 112.225  62.811 113.039  62.685
 113.392  62.663 113.688  62.647 114.296  62.578 114.679   62.61 114.897  62.647
 115.451  62.749 115.746  62.767 116.185  62.625 116.617  62.624 116.918  62.785
 117.362  62.678 118.005  62.649 118.376  62.636 118.864  62.747 119.193  62.868
 119.606  62.873 119.918  62.863 121.294  62.691 121.501  62.697 121.867  62.756
 122.245  62.741 122.892    62.6 123.126  62.518 123.804  62.429 124.315  62.926
  124.44  62.984 124.813  62.985 125.109  62.926 125.773  62.702 125.991  62.772
 127.286   62.86 127.724  62.823 127.917   62.85  128.63  62.837 128.961  62.771
 129.221  62.757 129.645  62.813 131.485  62.923 131.492  62.923 132.879  62.942
  133.39  62.933 134.021  62.932 134.414  62.932 135.022  62.945 135.087  62.946
 135.311  62.956 136.192  62.977 136.795  62.994 137.288  63.011 137.387  63.015
 137.915  63.014 138.011  63.019 138.885  63.013 138.929  63.014 138.998  63.015
 139.688  63.014 139.928  63.017 140.329  63.015 140.488  63.016  140.87  63.039
 141.469  63.023 141.759  63.013 142.331  63.016 142.446  63.019 142.505  63.017
 143.579  63.011 143.813  63.021 144.158  63.026 144.573  63.041  144.99  63.051
 145.217  63.063 145.901  63.077 146.251  63.061 146.546  63.057 146.857  63.052
 147.462  63.063 147.584  63.065 147.627  63.066 148.905  63.052 149.754   63.06
 151.848  63.061  151.95  63.061 152.491   63.07 153.216  63.066  153.49  63.067
 153.639  63.065 154.069  63.075 154.388  63.086 155.013  63.104 155.292  63.097
 155.969  63.107 156.275  63.108 156.432  63.111 157.437  63.093 157.688   63.09
 157.891  63.094 158.354  63.113 158.995  63.126  159.28  63.123 161.385  63.123
 161.669  63.128 161.708  63.126 161.768  63.128 161.851  63.129 162.317  63.139
 163.076   63.17 163.262  63.179 163.365  63.181 163.848  63.191 164.392  63.202
 164.721  63.208 166.387  63.327 166.586  63.343 166.781  63.351 167.591  63.365
 168.147   63.38 168.257  63.381 169.435  63.397 169.493  63.399 169.641  63.402
 170.575   63.42 170.787  63.424 171.556  63.454 171.883  63.467 172.027  63.468
 172.342  63.468 173.408  63.467 173.991  63.479 174.037  63.479 174.085  63.481
 174.957  63.506 175.052  63.508 175.638  63.515 176.064  63.521 176.363  63.529
 176.773  63.548 177.289  63.567 177.586  63.577 177.837  63.582 180.871  63.639
 180.997  63.642  181.88   63.66 181.902   63.66 181.919  63.661 182.702  63.692
 183.542  63.719  183.59  63.721 184.161   63.74 184.495  63.752 184.504  63.753
 184.959  63.782  185.05  63.785 186.012  63.816 186.015  63.816 186.023  63.817
 186.803  63.859 186.935  63.856 187.173  63.861 188.554  63.897  189.03  63.922
 189.479  63.961 189.511  63.962 189.774   63.96 190.358   63.95 190.546  63.949
  190.89   63.95  191.38  63.962 191.699  63.976 191.825  63.983 192.598  64.009
 192.638  64.011 192.778  64.017 193.176  64.032 193.295  64.036 194.014  64.081
 194.193  64.088 194.285  64.087 194.652  64.087 195.299  64.088 195.603  64.102
 196.138  64.102 196.484  64.118 197.409  64.145 197.627  64.155 197.679  64.156
  198.13  64.177 198.337   64.18 199.023  64.195 199.433  64.207 199.643  64.214
 200.036  64.232 200.445  64.251 200.775  64.255 200.914  64.255 201.361  64.266
 201.798  64.279  202.37  64.293 202.399  64.296  202.49  64.297 203.582  64.343
 203.845   64.36 204.208  64.365 204.959  64.366 205.194  64.365 205.308  64.368
 205.505  64.373 206.405   64.39 206.986  64.414 207.092  64.422 207.344  64.426
     208   64.44 208.369  64.494 208.504  64.506 208.704  64.503
#Mann= 3 , 0 , 0 
       0     .03       0       0     .03       0 208.704     .03       0
Bank Sta=0,208.704
XS Rating Curve= 0 ,0
XS HTab Starting El and Incr=62.15,0.12, 20 
XS HTab Horizontal Distribution= 5 , 5 , 5 
Exp/Cntr=0.3,0.1

Type RM Length L Ch R = 1 ,677.78  ,93.36,93.36,93.36
XS GIS Cut Line=3
502817.767570261   320175.330224502768.432189058 320303.85256535
502722.005723613320424.796964563
Node Last Edited Time=Jun/13/2019 15:20:33
#Sta/Elev= 465 
       0      64.2430115  63.972.3379822  63.9652.428009  63.8733.540009  63.855
5.225983  63.8265.417999  63.827 6.06601  63.8127.983002  63.7648.373993  63.751
   9.556  63.737 9.98999   63.7110.94699  63.711  11.711  63.683  12.286  63.672
12.32599  63.672  12.821  63.647  13.032  63.64813.18199  63.65915.17599  63.678
15.55299  63.65716.26399  63.572  17.455  63.455  17.841  63.445  18.442  63.421
  19.043  63.33619.11099  63.327  19.418   63.32  20.235  63.32720.60199   63.32
  21.315  63.325  21.524  63.328  21.595  63.32922.28999  63.305  23.054  63.268
  23.202  63.256  23.983   63.2624.61499  63.265  24.724  63.26424.82399  63.262
  25.409   63.19  25.784  63.23426.41499   63.22  26.855  63.28427.02299  63.258
27.70099  63.182  27.793  63.17227.97699  63.167  28.689  63.148  29.744  63.145
30.05299  63.146  30.377  63.141   30.98  63.127  31.244  63.12231.83099  63.082
32.33499  63.032  32.942  63.012  33.092  63.00233.42099  63.004  33.987  62.989
  34.213  62.97534.64999  62.965  35.319  62.97935.47499  62.978  35.995  62.989
36.70799   62.9537.07399  62.94137.25099  62.943  37.748  62.938  38.336   62.94
38.59799  62.93339.08099  62.915  39.131  62.91339.15599  62.913  40.064  62.883
  40.067  62.88340.78099   62.88  41.213  62.87341.67099  62.895  42.207  62.882
  42.286   62.8743.20599  62.95244.51199  62.91445.28799  62.84846.03799  62.821
47.34999  62.816  47.409  62.81647.51999  62.81548.09599  62.812  48.549  62.818
  49.144  62.824  49.759  62.83750.35699  62.832   50.73  62.837  50.821  62.841
    51.2  62.83451.77699  62.82752.35199  62.857  52.907  62.883  53.088  62.883
  53.233  62.886  53.707  62.858  54.439   62.88   54.62   62.8855.95999  62.858
  56.675  62.853  57.179  62.852  57.388   62.8557.92299   62.85  58.071  62.849
    58.5  62.839   59.33  62.81760.08299  62.66460.30499   62.64   60.47  62.623
60.84999  62.574  61.054  62.574  61.168  62.588  62.161  62.652  62.741  62.556
63.49899  62.371   63.61  62.377  63.651  62.366   64.16  62.396  64.362  62.409
  65.213  62.39667.89999   62.5668.68599  62.59470.29199  62.76170.60199  62.794
72.58699  62.855  74.383  62.817  75.375  62.701  79.349  62.876  81.099  62.835
81.13899  62.83482.34999  62.843  82.478  62.844  83.009  62.761  85.509  62.585
  85.664  62.566  86.205   62.6586.80299  62.246  87.008   62.2588.12399  62.484
  88.828  62.297  88.989  62.299  89.336  62.29189.65199  62.28891.14499  62.445
91.56099  62.269  91.836  62.71992.66299  62.812  93.082  62.78493.20999  62.753
93.90399    62.695.19099  62.667  95.297  62.667  96.338  62.782  96.495  62.785
  97.007  62.781  97.246  62.79697.85699  62.814  98.119  62.81998.25999  62.826
98.32599  62.829  99.174  62.80999.56099  62.797 100.051  62.807 100.163  62.808
 100.429  62.812 101.456  62.851 102.445  62.894 102.988  62.893 103.271  62.874
 103.713  62.861 104.596  62.758 104.628  62.758 104.701  62.763  105.32  62.789
 105.457  62.784 106.544  62.787 106.865  62.756 107.114  62.737 108.711  62.606
 109.265  62.581 110.755  62.782 110.853  62.766 111.435  62.554 111.565  62.552
 112.358  62.535 113.913   62.51 114.279  62.551 115.411  62.587 115.791  62.599
 115.938    62.6 116.503  62.608  116.71  62.612 117.646  62.635   117.9   62.64
 118.374  62.647 118.702   62.67 119.295  62.732  119.65  62.761 119.797  62.788
 120.867  62.784  121.07  62.785 121.177  62.786 122.002  62.729 122.537  62.709
 122.737  62.704 122.805  62.704  123.56  62.713 123.617  62.715 124.106  62.718
 124.751  62.714 124.823  62.713 124.979  62.715 125.445  62.723 125.749  62.727
 126.404  62.733 126.944   62.74 127.015  62.744 127.085  62.746 128.265  62.838
 128.385   62.83 129.149  62.811 129.526    62.8 129.925  62.781 130.486  62.765
   130.7  62.765 130.976  62.757 131.612  62.729  132.06  62.693 132.281   62.63
 132.857  62.473 136.747  61.999 136.845  61.987 137.009  61.991 137.666  62.006
 140.824  62.078 143.112  62.187 143.467   62.28 143.777  62.346 144.522  62.486
 145.023  62.587 145.476  62.634 145.804  62.673 145.884  62.681 146.883  62.702
 148.551  62.753 148.801  62.754 149.398  62.761 149.496  62.764 149.697  62.771
 150.765  62.831 150.899  62.838 151.378  62.842 152.379  62.853 152.485  62.853
 153.119  62.829  153.15  62.828 153.203  62.828 154.416  62.807 154.644  62.804
 154.901  62.792 155.382  62.788 155.987  62.798 156.225  62.797 156.503  62.802
 156.943  62.813 157.514  62.831 158.111  62.856 158.122  62.856 159.027  62.847
 159.674  62.854 159.732  62.856 159.815  62.857 160.654  62.869 161.715  62.885
 161.801  62.886 161.869  62.885 162.648  62.875 162.707  62.876 162.849  62.876
 163.501  62.874  163.65  62.872 165.236  62.882 165.872  62.885 166.393  62.891
 166.902    62.9 167.061  62.919 167.356  62.916 168.052  62.936 168.421  62.939
 170.206  62.975 170.518  62.991 170.791  62.988 171.089  62.976 171.734   62.96
 172.719  62.993 172.724  62.993 173.552  63.018 174.584  63.044 174.763  63.048
  174.95  63.053 175.332  63.062 175.539  63.077  176.12  63.097 176.527  63.128
 177.041  63.166 177.665  63.176 178.598  63.183 178.645  63.184  178.68  63.183
 179.363  63.213 179.599   63.22 180.038  63.248 180.794  63.272 182.793   63.31
 183.119  63.316  184.03  63.346 184.383  63.357 185.734  63.378 186.091  63.383
 186.779   63.41 186.873  63.414 186.974  63.416 187.187  63.418 188.015   63.43
 188.537  63.441  189.66  63.429  190.26  63.444 190.339  63.445 190.434  63.445
 191.062  63.475 191.211  63.477 191.635  63.504 192.306  63.523 192.558  63.532
 193.195  63.535 193.339  63.557  194.05  63.571 194.373  63.563 195.335  63.594
 195.637  63.621 196.017  63.638 196.315   63.65  196.76  63.666 197.814  63.715
 198.152  63.713 198.378  63.726 199.315  63.769 199.505  63.775  199.75   63.79
  201.04  63.806 201.407  63.891  201.85  63.909 202.401  63.924 203.561  63.941
 203.753  63.948 203.809   63.95 203.853  63.954 204.466  63.982 204.566  63.985
 205.501  64.024 206.097  64.058 206.488  64.088 207.129  64.138 207.229  64.142
 207.322  64.157 207.941  64.215 208.442  64.209 209.471  64.242 211.191   64.32
  211.55   64.31 212.463  64.316 212.683   64.32 213.393  64.366 213.821  64.381
 214.307  64.394 215.071  64.411 215.258  64.414 215.358  64.417 216.487  64.461
 216.686  64.467 217.063  64.476  217.68  64.498 218.099  64.519 218.366  64.553
 219.058  64.585 219.291  64.585 219.769  64.599 220.103  64.611  220.24  64.623
 220.757  64.643 221.335  64.654 221.511  64.655 221.742  64.665 222.294  64.676
 222.704  64.676  223.54  64.668 224.321  64.673 224.853  64.667 225.663  64.663
 225.927  64.672 226.284  64.677 226.844    64.7  227.21  64.705 227.523  64.693
 228.224  64.685 228.993   64.71 229.451  64.708 229.781  64.693 230.075  64.695
  230.34  64.698 232.677   64.74 236.316  64.835 236.713  64.841 236.796  64.839
 237.423   64.82   237.9  64.821 238.908  64.823 239.185  64.816 240.758  64.829
 243.904  64.881 244.307  64.889 244.665  64.884 244.848  64.881 245.942  64.869
 246.295  64.882 247.501  64.881 247.864  64.869 248.306  64.869 249.608  64.881
 250.657    64.9 252.714  64.874 254.072  64.864 254.946  64.879 255.357  64.858
 256.047  64.877 256.783  64.888 257.039  64.886 257.645  64.876 257.971   64.87
 258.343  64.867 258.924  64.873 259.157  64.874 259.669  64.886 259.751  64.889
 261.167  64.865 261.349  64.865  262.13   64.87 262.407  64.869 263.479  64.881
 263.688   64.89 263.789  64.882  264.31  64.874  264.79  64.874 265.143  64.876
 265.321  64.875 266.661   64.89 266.833  64.896  267.03  64.894 267.215  64.895
#Mann= 3 , 0 , 0 
       0     .03       0       0     .03       0 267.215     .03       0
Bank Sta=0,267.215
XS Rating Curve= 0 ,0
XS HTab Starting El and Incr=62.137,0.14, 20 
XS HTab Horizontal Distribution= 5 , 5 , 5 
Exp/Cntr=0.3,0.1

Type RM Length L Ch R = 1 ,584.42  ,99.63,99.63,99.63
XS GIS Cut Line=3
502644.691062627320179.788377025502676.327313805320308.705558095
 502709.30774693320443.100257548
Node Last Edited Time=Jun/13/2019 15:20:33
#Sta/Elev= 453 
       0  63.219.7940063  63.2171.751007  63.2112.049988  63.2244.914001  63.231
5.932983  63.2346.067993  63.2366.164001  63.2356.936005  63.209 8.09198  63.249
10.76401  63.20412.10699  63.29912.89798  63.17313.23499  63.16513.99899  63.161
  14.427  63.161  15.995  63.16416.66499  63.167   16.84  63.16817.59399  63.161
  17.739  63.16322.45699  63.172  22.605  63.17122.65999  63.171  22.991  63.163
  23.722  63.14324.28499   63.1524.68199  63.15725.42099  63.16925.75499  63.164
26.30899  63.13526.53799   63.1327.74699  63.12827.87299  63.13128.49599  63.135
  28.713  63.13628.76199  63.137  29.532  63.142  30.097  63.11430.21199  63.111
30.27199  63.105  30.564  63.11330.91399  63.12330.98199  63.122  31.726  63.119
  31.758  63.11932.41899  63.11632.64899  63.09533.20999  63.315  33.724  63.274
33.87799   63.2833.96599  63.279  34.571  63.07534.86299  63.07935.36899  63.059
35.65399  63.05136.32899  63.057  36.724  63.059  37.935  63.04638.01599  63.045
38.04199  63.04638.44699  63.07538.95299  63.05839.99399   63.06  42.836  63.015
   45.12  63.027  45.894  63.027  45.903  63.026  45.918  63.02645.95999  63.027
46.74799  63.02147.93799  63.03148.92299  63.054  51.681  63.238  52.202  63.258
  52.599  63.272  53.181  63.209   53.62  63.18253.91699  63.05355.08299  63.048
60.68399  62.97662.47899   62.9963.99799  62.98965.21199  63.072  67.769  63.103
68.97299  63.22369.85199  63.116  70.202  63.10371.23599  63.18872.26999  63.226
74.56599   63.0675.92899  62.95477.88699  62.94478.36299  62.943  78.728  62.949
  80.967  62.95781.08899  62.95781.12299  62.95682.01599  62.96982.65199  62.956
83.41399  62.93783.74599  62.93884.72699  62.95285.70799  62.95388.75899  62.932
89.73599  62.93889.99899  62.94590.29399  62.97290.68599  62.956  92.112  62.958
  92.883  62.98292.98199  62.98693.07199  62.981  93.778  62.96793.80699  62.966
94.54399  62.92794.77399  62.92896.73299  62.91496.92799  62.91898.24399  62.928
  98.881  62.893  99.228  62.891 101.746  62.894 102.341  62.893 102.503  62.889
  105.22  63.026  105.33  63.022 105.506  62.988 107.101  62.729 107.531  62.738
 108.147  62.744 108.426   62.75 109.026  62.762 109.546  62.766 110.005  62.769
 110.594  62.792 110.899  62.802 111.172   62.81 111.596  62.826 111.961  62.934
 112.387  62.994 113.024   62.93 113.252   62.88 114.113  62.838 114.263  62.837
 115.009  62.831  115.21  62.828 115.308  62.831 115.945  62.847 116.473  62.839
 116.825  62.851 117.622  62.842 117.699  62.841 118.745  62.856 118.787  62.856
 119.473  62.858 119.642  62.861 121.113  62.868 121.194  62.868 121.241  62.867
 121.392  62.863 122.139  62.842 122.375  62.854 123.051  62.843  123.12  62.843
 123.144  62.842 123.632  62.796 124.084  62.753 124.105  62.752 124.192  62.745
 124.793  62.697 124.939  62.687 125.452  62.664 125.666  62.667 126.656  62.571
 126.741  62.562 127.367  62.442 127.774  62.373   127.8  62.362  127.81   62.36
 127.919  62.348 128.512  62.262 130.182  62.013 130.284  62.012 130.736  62.034
 131.254  62.056 131.427   62.06  132.28  62.022 132.742  62.003 132.909  61.996
 133.193  62.026 136.212  62.389 136.406  62.475 136.799  62.515 137.339  62.596
  137.45  62.617 137.537  62.627 138.189  62.683 138.299  62.699   139.1  62.764
 140.761  62.831 141.136  62.842 141.286  62.844 141.426  62.845 142.072  62.869
 143.507  62.896 144.285  62.872  144.62  62.854 144.801   62.85  145.94  62.836
 146.405  62.829 146.697  62.844 147.218  62.869 147.302  62.872 147.595  62.878
 148.182  62.892 148.324  62.897 149.006   62.92 149.027  62.921 149.078  62.922
 149.814  62.953  151.33  62.925 151.754  62.915 152.078   62.92 152.785  62.919
 153.666  62.939 153.975  62.948  154.08  62.945 154.996  62.948 155.482  62.932
 156.044  62.948 156.501  63.073 156.967   63.06 157.441  62.982  158.39  62.983
 158.985  62.984 159.468      63 159.567  63.003 159.606  63.006 159.792   63.01
 161.556  63.067 162.206  63.042 162.536   63.05 162.856  63.021  163.07  63.019
 164.202  63.013 164.695  63.027 165.387   63.02 165.805   63.02 166.801  63.029
 167.518  63.019 168.019  63.022 168.406  63.023 169.015  63.027 169.415  63.041
 169.875  63.052 170.337  63.054 170.608  63.051 171.267  63.071 171.426  63.075
  171.54  63.074 172.321  63.071 172.783  63.071 173.468  63.077 173.817  63.099
 175.028  63.092 176.205  63.107 176.549  63.098 176.886  63.104 177.519  63.119
  177.68  63.125 177.814  63.131  178.52  63.159 178.985  63.164  179.29  63.165
 179.418  63.165 180.489  63.164 180.981  63.167 181.924   63.19 182.345  63.198
 182.512  63.198 182.624  63.196 183.593  63.197 183.996  63.212 184.623  63.225
  184.86  63.231 185.108   63.24 185.756  63.258 186.368  63.246 186.945  63.264
 187.225   63.28 187.946   63.29 188.152  63.296 188.212  63.299 188.746  63.302
 191.255  63.314 191.838  63.335 192.926  63.344 193.679  63.343 194.087  63.364
 194.332  63.371 194.941  63.376 195.261  63.387 195.697  63.406 196.141  63.409
 196.501  63.414 196.747   63.42 197.556  63.458 197.835  63.464 198.377  63.462
 198.777   63.47 199.305  63.464 199.698  63.476 199.998  63.476 200.879  63.457
 200.917  63.457 201.768   63.51 201.865  63.505 202.684  63.527 202.853  63.543
 203.445  63.581 203.627  63.585 204.125  63.599 204.731  63.607 204.971  63.606
 205.496  63.638 206.169  63.708 206.984  63.702 207.293   63.72 207.508  63.719
 208.949  63.776 209.017  63.779 209.077  63.781 209.201  63.782 210.298  63.797
 210.583  63.814 211.058  63.836 212.571  63.874 212.855   63.88 213.687  63.835
  213.77  63.833 213.834  63.834 214.399  63.848 214.941   63.85 215.053  63.844
 215.375   63.84 216.149  63.832 216.663  63.846 218.891  63.876 219.399  63.905
 220.106  64.023  220.28  64.012 221.144  64.019 221.338  64.024 221.616  64.047
 222.242  64.106 222.533  64.124 222.748  64.142 223.317  64.199 223.657   64.22
 224.071  64.229 224.362  64.239 224.921  64.239 225.282  64.258 225.345  64.258
 225.408  64.264 225.646   64.27 226.099  64.281 226.737  64.444 226.848  64.446
 227.556   64.35 227.752  64.353 228.224  64.367 228.486  64.378 229.539  64.413
 229.729  64.423 229.838  64.421 230.516  64.408 230.728  64.402 230.842  64.406
  231.58  64.439 232.319  64.458 232.387  64.463 232.909  64.488 233.049  64.493
 234.373   64.53 235.625  64.528 236.196   64.53 236.405  64.538 236.478  64.542
 237.267  64.557 238.185  64.572 238.287  64.576 238.378  64.581 238.848    64.6
 241.956  64.744 242.217  64.758 242.829  64.802 243.747  64.821   243.8  64.821
 244.648  64.847 245.066  64.873 245.642  64.959 246.153  64.961 246.479  65.011
 248.028  65.073 248.339  65.077  248.52  65.093 249.307  65.148 250.013  65.136
 251.313  65.126 252.268  65.112 252.842  65.094 253.421  65.106   253.9  65.111
 254.395  65.134 254.725  65.159 255.175  65.161  255.93  65.152 256.789  65.135
 256.968  65.131 257.059  65.132 257.762  65.144 258.086  65.146 258.615  65.147
 259.079  65.157  259.54  65.188 260.001  65.194 260.671  65.179 260.976  65.172
 261.653  65.174 261.844  65.175 261.876  65.176  262.07  65.173 263.119  65.166
 263.422  65.169 263.845  65.176 264.458  65.188 264.773  65.194 265.729  65.215
 265.733  65.215 266.509   65.21  266.69  65.211 267.582  65.219 267.828   65.22
 268.572  65.216 268.776  65.221 269.353  65.235 269.709  65.232 270.427  65.246
 270.619  65.246  270.83  65.247 271.124  65.249
#Mann= 3 , 0 , 0 
       0     .03       0       0     .03       0 271.124     .03       0
Bank Sta=0,271.124
XS Rating Curve= 0 ,0
XS HTab Starting El and Incr=62.146,0.16, 20 
XS HTab Horizontal Distribution= 5 , 5 , 5 
Exp/Cntr=0.3,0.1

Type RM Length L Ch R = 1 ,484.79  ,61.88,61.88,61.88
XS GIS Cut Line=3
502531.336380559 320169.03273697502583.947800456320308.989554494
502639.671126051320457.224658726
Node Last Edited Time=Jun/13/2019 15:20:33
#Sta/Elev= 490 
       0  64.966.1479797  64.958 .947998  64.997 1.68399  64.9692.901978  65.022
3.151001  65.0243.537994  64.9854.138977  64.9654.734985   64.935.070984  64.888
6.458984  64.8737.487976  64.859 8.17099  65.0218.363983  64.9949.169983  64.792
9.460999  64.78410.28699  64.833  10.522  64.846  10.685  64.87411.55698  64.893
11.72699  64.88812.37399  64.972  12.539  64.991  13.366  64.81413.39099  64.812
14.65198  64.828  14.776  64.831  16.427  64.81116.46799   64.81   17.22  64.809
   17.34  64.819   17.78  64.81418.42499  64.819  18.918  64.80619.26099  64.802
19.91098    64.820.43698  64.799   20.72  64.79721.19498  64.80721.44199  64.811
22.13098  64.78322.90698  64.761  22.987  64.75823.68399  64.74223.86398  64.743
   24.28  64.74824.98898  64.72725.20499  64.71726.10999  64.72127.21298  64.695
27.47598   64.6927.71298  64.684  28.422  64.65829.98999  64.64830.34299  64.632
  30.789  64.61531.42599  64.60331.50699  64.59831.99298  64.60232.17099  64.601
33.13498  64.592  33.327  64.58333.83698  64.55734.41299  64.56236.68298  64.529
  36.875  64.52737.12997  64.534  37.638   64.5338.25998  64.491  38.896   64.47
39.15298  64.469   39.72  64.46940.16199   64.4640.97198  64.50141.16299  64.492
41.39999  64.51342.49298  64.436  44.056  64.407  44.504  64.405  44.814  64.402
45.19998  64.40145.48099  64.399   46.22  64.397  46.332  64.39347.08298   64.37