Geom Title=1484 17B Geometry
Program Version=5.07
Viewing Rectangle= 242205.1239 , 243186.9861 , 4399122.37991119 , 4398717.50969484 

River Reach=trib. licking cr,GP              
Reach XY= 23 
       242214.75      4399090.21       242286.13      4399057.77
         242358.       4399020.6       242384.37      4399006.97
       242441.69      4398982.87       242498.81      4398961.38
       242527.21      4398950.69        242565.2      4398944.05
       242611.47      4398935.95       242670.23      4398913.76
       242708.77       4398899.2       242770.74      4398862.14
       242811.76       4398851.1       242854.79      4398832.56
       242905.44      4398808.03       242943.45      4398789.62
       242971.08      4398782.43       242985.31      4398785.68
        243003.8      4398796.17       243023.56      4398807.38
       243068.59      4398813.79        243106.7      4398813.79
       243177.36      4398809.03
Rch Text X Y=242455.4025,4399019.915
Reverse River Text= 0 

Type RM Length L Ch R = 1 ,970.69  ,120.13,120.13,120.13
XS GIS Cut Line=3
243118.1398520094398908.95325693243114.5048769524398813.26289723
243111.1220075714398724.20919458
Node Last Edited Time=Jun/20/2019 11:56:30
#Sta/Elev= 292 
       0 123.665    .061 123.667    .495 123.697     .54 123.698    .581 123.689
    .782  123.67    .987 123.679    1.38 123.687   1.438 123.684   1.755 123.671
   1.768  123.67   1.787 123.668   2.522 123.649   2.655 123.666   2.729 123.631
   3.017  123.64   3.089 123.634   3.225 123.646   3.632 123.666    3.89 123.701
   3.956 123.685   4.444 123.753   4.799 123.742   4.834 123.724   5.635 123.655
   5.649 123.653   5.677 123.651   5.688 123.652   5.715  123.65   6.315 123.713
   6.396 123.725   6.686 123.727   6.863 123.704   7.075 123.659   7.266 123.621
   7.419 123.578   7.921 123.537   8.345 123.506   8.404 123.508    8.82 123.492
   9.036 123.509   9.057 123.513   9.074 123.503   9.224 123.518  10.079 123.547
  10.208 123.552  10.241 123.562  10.523 123.547  11.016 123.517    11.2 123.578
  11.217 123.574  11.366 123.513  11.801 123.553  12.058  123.56  13.197 123.712
  13.226 123.714  13.233 123.711   13.25 123.718  13.356 123.698  13.615 123.716
  13.972 123.783  14.111  123.78  14.756 123.845  15.222 123.857  15.397 123.888
   15.52 123.897  16.615 123.998  17.148 124.028  17.825 123.991  19.219 123.971
  19.941 123.923  20.327 123.771   20.38 123.777  20.542 123.732  20.987 123.693
  21.406 123.665  21.622 123.754  21.791  123.74  21.872 123.667  22.151 123.482
  22.282 123.477  22.838  123.39  23.212 123.473  23.349 123.509  23.455 123.518
  23.867 123.576  23.954 123.585   24.02 123.569  24.432 123.332  24.653 123.317
  25.335 123.273  25.382  123.31   25.66 123.299  25.755 123.309  25.933 123.339
  26.029  123.33  26.119 123.332   26.24 123.326  27.022  123.26  27.743 123.148
  27.784 123.145  27.867 123.142  28.128 123.126  28.229 122.971  28.301 122.944
  28.345 122.933  29.338 122.914  29.449 122.916  29.705 122.902  29.798 122.911
  30.307 122.861  30.435  122.85  30.449 122.849  30.468 122.843    30.7 122.774
  30.917 122.732   31.08 122.691   31.35 122.561  31.947 122.251   32.41 122.121
  32.572 122.147  32.614 122.168   32.69 121.974  33.177 121.972  33.872 122.045
  34.123 121.997  34.156 121.996  36.666 121.994  42.608 122.097  43.488  121.99
  45.171 122.076  46.344 122.062  46.634  122.13  47.281 122.038  48.206 121.992
  48.936 121.989   49.59  121.95  56.667 121.991  63.942 122.073  64.019 122.098
  64.069 122.091  64.597 122.178  64.656 122.188  64.673 122.197  64.907 122.243
  65.512 122.377  65.711 122.415  66.417  122.49  66.475 122.499   66.51 122.495
  66.869 122.471  67.041 122.503  67.422 122.604  67.844 122.677  68.278 122.705
  68.844 122.771  68.944 122.802  71.037 122.761  74.191 122.716  75.461 122.715
  76.573 122.662   80.48 122.519  82.174 122.379   85.93 122.182  88.295 122.047
  88.303 122.046  88.644 122.041  88.898 122.051  89.619 122.144  90.189 122.132
  90.348 122.125  90.754 122.088  91.128 122.072  91.565 122.094  92.031 122.146
  92.779 122.069  92.982 122.035  93.208 122.047   93.71 122.046   94.45 122.062
  94.673 122.075  94.942  122.06  95.759 122.056  95.832 122.056  96.404 122.101
  96.763 122.055  97.092 122.067   99.22 121.904  99.927 121.921 100.085 121.993
 100.497  122.11 101.141 122.112 101.493 122.126 101.681 122.106 102.215  122.16
 103.009 122.098 103.205  122.06 103.382  122.03 104.113 121.995  104.43 122.087
 104.748 122.223  104.94 122.264   115.2 130.015  120.19 133.815 120.214 133.822
 120.261 133.835 120.407 133.901 121.174 134.266 121.383 134.424 121.876 134.792
 122.285 134.963 122.929  135.26 123.276 135.492 123.647 135.689 124.298 136.081
 124.715 136.391 124.974 136.512 125.412 136.677 125.558 136.772 125.795  136.97
 126.413 137.434 126.445  137.46 126.478 137.477 126.492 137.488 134.396 139.983
 163.881   150.4 163.979 150.392 164.137 150.415 164.473 150.544 164.964 150.696
  165.35 150.601 165.587 150.567 165.936 150.612 166.672  150.68  166.95 150.757
 167.271 150.753 167.324 150.746 167.369 150.677 167.577 150.676 168.422  150.74
 168.781 150.767 169.083  150.81 169.351 150.793 169.514  150.79 169.853  150.76
 170.006 150.751 170.164  150.76 170.432 150.788 170.838 150.888 171.274 150.944
 171.924 150.979 171.932 150.972 172.002 150.969 172.115 150.994 172.336 151.023
 172.591 151.088 172.878 151.161 173.713 151.366 174.006  151.41  174.33 151.429
 174.512 151.414 174.718  151.41 175.478 151.536 175.972 151.566 176.112  151.58
 176.179 151.584 176.903 151.661 177.115  151.75 177.682 151.882 177.924 151.904
 178.192 151.907 178.463 151.937 179.077 151.965 179.158 151.963 179.287  151.97
 179.618 151.962 179.691 151.972 180.149 152.124 180.825 152.308 181.241 152.459
 181.458 152.453 181.539 152.426 182.237 152.305 182.597 152.371 183.069 152.531
  183.28 152.563 183.464 152.563 183.836 152.587 183.986 152.588 184.325 152.669
 184.791 152.639 184.877 152.666
#Mann= 3 , 0 , 0 
       0     .03       0       0     .03       0 184.877     .03       0
Bank Sta=0,184.877
XS Rating Curve= 0 ,0
XS HTab Starting El and Incr=122.054,0.3, 100 
XS HTab Horizontal Distribution= 5 , 5 , 5 
Exp/Cntr=0.3,0.1

Type RM Length L Ch R = 1 ,850.56  ,167.13,167.13,167.13
XS GIS Cut Line=3
242961.2935658064398874.45924865242998.5799665174398793.20753776
243031.4961755384398721.47901884
Node Last Edited Time=Jan/10/2021 16:36:38
#Sta/Elev= 297 
       0 124.526     .11 124.534     .51 124.571   1.205 124.503   1.291 124.487
    1.31 124.497   1.392 124.491   2.161 124.464    2.52 124.458   2.709 124.447
   3.175 124.483   3.225 124.494   3.287 124.488    3.52 124.522   3.986 124.488
   4.148  124.46   5.119 124.503   5.382 124.501   5.528  124.51   5.814 124.526
   6.055 124.492    6.59 124.454   6.921 124.403   7.674 124.413    7.78 124.412
   8.879 124.385   9.046 124.381   9.052  124.38   9.065 124.378   9.478 124.324
   9.875 124.291  10.536  124.28  10.924 124.082  10.956 124.078  11.268 124.118
  11.705 124.022   11.99 123.924  12.269 123.918  12.895 123.884  13.163 123.876
  13.459 123.953  13.627  123.99  13.668  123.98  14.123 123.878  14.837 123.824
  15.297 123.881  16.284 123.873  16.369 123.873  16.702 123.887   17.07 123.927
  17.313 123.907  17.478 123.945   18.36  124.06  18.401  124.06  18.916 124.231
  19.102  124.22  19.507 124.157  19.854 124.155  19.985  124.15  20.517 124.175
  20.872 124.198  22.189 124.211  22.206 124.211  22.228 124.212  22.257 124.207
  22.755 124.277  23.874  124.21  23.985 124.249  24.436 124.371  24.523 124.325
  25.363 124.312  25.537 124.329  25.952 124.245  26.243 124.136  26.597 124.086
  26.893  124.03  27.316 123.975  27.838 123.894  27.932 123.871   28.45 123.757
  28.598  123.75  28.885  123.72  29.435 123.752  30.036 123.688  30.218 123.661
  31.035  123.75  31.056 123.749   31.09 123.752  31.791 123.773  32.203 123.762
  32.331 123.775   32.64  123.74  32.832 123.807  33.066 123.772  33.164 123.773
  33.484 123.794  33.947 123.832  34.107 123.832  34.298 123.824  35.145 123.794
  35.246  123.82  35.512 123.869  36.269 123.887  36.434 123.905  36.549 123.912
  37.371 123.959  37.797 123.967   38.43 123.972  38.506 123.981  38.587 123.982
  38.803 124.002  39.054 124.002  39.627 123.956  40.327 123.904  40.521 123.939
  40.734 123.923  41.049 123.901  41.219 123.872  41.632 123.691  41.827 123.668
  42.333 123.606  42.618 123.584  42.794 123.572  43.239 123.617  43.682 123.623
  43.776 123.655  43.824 123.652  44.654 123.718  44.945 123.741  44.982 123.745
   45.05 123.742  45.632  123.59  45.833 123.542  45.859 123.543  46.375  123.62
  46.583 123.639  46.815 123.673  47.051 123.719  47.419 123.771   48.01 123.759
  48.263 123.786  48.537  123.74  49.003 123.734  49.258 123.654  49.365 123.636
  49.607 123.611   49.86 123.611  50.124 123.557  51.085 123.453  51.539 123.535
  51.675 123.553   52.17 123.497  52.379 123.479  53.377 123.437  53.434 123.443
  53.522 123.445  53.703 123.478  54.205 123.562  54.332 123.604  54.469 123.607
  55.022 123.719  55.461   123.7  55.722 123.724   56.36   123.8  56.422 123.808
  56.448  123.81  56.499 123.812  57.428 123.918  57.555 123.911  57.908 123.939
  58.841 123.927  58.948 123.908   59.47 123.912  59.752 123.913  60.016 123.874
  60.306 123.866  60.572 123.803  60.913 123.752  61.777 123.781  61.889 123.783
  61.946 123.783  62.474 123.806  62.623 123.806  62.676 123.785  62.818 123.767
  63.166 123.705   63.86  123.74  64.378 123.745  64.858 123.788  65.208 123.808
  65.602 123.827  65.828 123.838  65.932 123.826  66.892 123.859  66.911 123.861
  66.968 123.854   67.38  123.83  68.064 123.791  68.088 123.785  68.184  123.76
  68.705 123.581  69.029 123.481  69.691 123.359  70.334  123.21  70.528 123.175
  71.555 123.114  72.411 122.942  72.746 122.935  73.666 122.942  73.724 122.938
  73.749 122.934  73.813 122.919  74.081 122.828  74.237 122.771  74.268 122.768
  74.612  122.77  75.148 122.766  75.201 122.772  75.243 122.772  76.254  122.81
  76.447  122.81   76.83 122.726  77.028 122.701  77.335 122.725  78.061 122.713
  78.411 122.701  78.924 122.657  79.449  122.67   79.46  122.67  80.067 122.607
  80.503 122.607   80.84 122.568  81.475 122.411  82.143 122.361  82.554 122.287
  82.662 122.254  82.698 122.241  83.386 122.234  85.834  122.23  89.399 122.231
  90.666 122.231  90.966 122.284  91.737 122.397  91.888   122.4   92.63 122.442
  93.384 122.459  93.759 122.271  94.752 122.285  97.681 122.536 102.105 125.566
 125.719 140.628 143.338 150.947  144.04  151.33 145.379 151.418 147.011 151.751
 151.607   152.8   151.7 152.823 154.351 153.292 154.689 153.351 155.141 153.387
 155.316 153.382 155.402 153.419 156.159 153.502 156.573 153.644 157.116 153.781
 157.208  153.81 157.423 153.925 157.548 153.987 157.615 153.988 158.177 153.949
 158.349 153.988 158.653 154.056 159.348 154.235 159.702   154.3 159.973 154.373
 160.027 154.398 160.597 154.579  160.93 154.628 161.514 154.718 162.318 154.985
 162.556  155.03 162.715 155.078  162.83 155.112 163.388 155.177 163.725 155.241
 164.537 155.128 164.968  155.18 164.978 155.171 165.442 155.413 165.505 155.416
 165.685 155.419 166.186 155.419 166.322 155.456 167.578 155.705  167.75 155.743
 167.795 155.765 168.319     156
#Mann= 3 , 0 , 0 
       0     .01       0       0     .01       0 168.319     .01       0
Bank Sta=0,168.319
XS Rating Curve= 0 ,0
XS HTab Starting El and Incr=122.38,0.3, 100 
XS HTab Horizontal Distribution= 5 , 5 , 5 
Exp/Cntr=0.3,0.1

Type RM Length L Ch R = 1 ,683.43  ,105.54,105.54,105.54
XS GIS Cut Line=3
242902.9756952394398971.43551062 242845.405350214398836.59931879
242814.5857778074398764.41643063
Node Last Edited Time=Jan/10/2021 15:28:19
#Sta/Elev= 478 
       0 124.432    .134 124.454    .218 124.451    .264  124.46    .306 124.456
    .894 124.342   1.013 124.351   1.493 124.428   2.028 124.238   2.042 124.239
   2.059 124.236   2.085 124.237   2.898 124.567   3.296 124.573   3.329 124.577
   3.771 124.524   3.868 124.504   4.495 124.403   5.045 124.387   5.233 124.294
   5.417 124.284    5.62 124.276   5.654 124.287   6.062 124.313   6.933 124.365
   7.207 124.386   7.448 124.367   7.523  124.38   7.971 124.364    8.68  124.27
   9.091 124.315   9.177 124.335    9.48  124.35   9.539 124.344   9.573 124.354
   9.719 124.339  10.453 124.309  10.922 124.376  10.996 124.387  11.527 124.305
  11.637 124.297  12.148 124.305  12.214 124.298  12.551 124.326  12.778 124.337
  13.598 124.327   13.67  124.33  13.967 124.321  14.037 124.324  14.477 124.392
  14.622 124.385  15.129 124.367   15.62 124.348  15.686  124.35  15.748 124.355
  16.234 124.418  16.528  124.43  16.889 124.348  17.313 124.346  17.577   124.3
  17.798   124.3  17.955 124.224  18.969 124.252  19.181 124.266  19.307 124.268
  19.741 124.285  20.173 124.239  20.897 124.235  21.235 124.334  21.372 124.344
  21.502 124.324  22.411   124.3  22.627 124.305  22.913 124.317  23.142 124.334
  23.332 124.333  23.459 124.353  24.194  124.35  24.451 124.331  24.842 124.522
  25.381 124.515  25.414 124.518  25.461 124.525  25.464 124.517  25.985 124.459
  26.301 124.496  26.533 124.506  27.476  124.48  27.486 124.479  27.764  124.44
  27.831 124.444   28.18 124.472  28.221 124.456  28.512 124.482  29.508  124.48
  29.663  124.45   30.01 124.453  31.006 124.393  31.067 124.391  31.093 124.391
   31.11 124.389  31.615 124.385  32.011 124.438  32.135 124.437   32.33 124.457
  33.143 124.442  33.298  124.45  33.632 124.532  34.123 124.426  34.214 124.415
  34.249 124.415  35.423 124.488  35.712   124.5  35.875 124.467   36.18 124.526
  36.231 124.524  36.281 124.524  36.597 124.481  37.582 124.394  37.762 124.396
  38.219 124.454  38.269 124.452  38.329 124.471  38.458  124.47  39.427 124.516
  39.677 124.531  39.886 124.461  40.191 124.455  40.389 124.432  40.994 124.466
  41.085 124.467  41.311 124.446  41.613  124.44   41.84  124.42  42.206  124.44
  42.437 124.426  42.648 124.414   43.19 124.372  43.496 124.403   43.94 124.465
  44.205 124.423  44.428 124.426  44.665 124.445  44.738 124.458  44.849  124.47
  45.978 124.331  45.991 124.331  46.014 124.334  46.522 124.426   46.92 124.461
  47.689 124.511  48.031 124.486  48.113 124.474  48.446  124.46   48.59  124.46
  48.957  124.45    49.3 124.442  49.392 124.438  49.527 124.443  49.873 124.416
   50.58  124.47  50.585  124.47  50.602 124.467  50.928 124.409  50.988 124.421
  51.458 124.503  51.881 124.537   52.07 124.522  52.412  124.52   52.61 124.512
  52.963 124.511  53.096 124.513  53.498 124.555  54.204 124.543  54.453 124.528
  54.716  124.58  55.463 124.578  55.627 124.581  55.939 124.605  56.115 124.636
  56.271 124.598  56.531 124.578  57.054 124.628  57.589  124.64  57.903 124.671
   58.04 124.742  58.154 124.753  58.681 124.737  58.706 124.737  58.819 124.736
  59.263 124.718  59.329 124.719  59.749 124.758  60.158 124.749   60.17 124.749
  60.183 124.751  60.244 124.754   60.84 124.785  61.068 124.803   61.45 124.828
      62  124.83  62.244 124.811  62.671 124.695  62.874 124.611  63.096 124.559
  63.526 124.494  64.208 124.484  64.363 124.413   64.74 124.262  65.608  123.99
  65.872 123.952  66.039 123.943  66.271 123.869  66.376 123.893  66.711 124.002
  66.809 123.982  67.474 123.984   67.52 123.984  67.582 123.988  67.623 124.004
  68.169 124.039   68.26 124.078  68.722 124.015  68.907 124.007  69.646 124.029
  69.683  124.03  69.692  124.03   70.22 124.088  70.517  124.07  70.808 124.048
  71.067 124.076  71.349 124.146  71.656 124.133  72.232 124.131  72.385  124.13
  72.696 124.138  72.903 124.136  73.767 124.169  74.209 124.173  74.496 124.164
  74.786 124.159  74.838 124.158  75.802 124.124  76.138 124.154   76.23 124.162
  76.338 124.179    76.8 124.248  77.334 124.184  77.451 124.192  77.633 124.198
  78.122 124.273  78.451 124.293  79.048 124.294  79.235 124.286   79.62 124.252
  79.946 124.293  80.272 124.261  80.732 124.173  80.917  124.19  81.637 124.197
   81.96 124.112    82.6 124.082  82.852  124.07  84.013 124.358  84.145 124.399
  84.212 124.377  84.538 124.501  84.649  124.57  84.659 124.566  84.854 124.507
  84.904 124.508  85.857 124.538  85.885 124.538  86.069 124.514  86.341 124.475
    86.4 124.454   86.85 124.297  87.333 124.176  87.499 124.119  87.789  124.14
  88.075 124.148  88.754 123.856  89.018 123.831  89.523 123.979   89.68 123.995
  90.268 123.873  90.358 123.876  90.508 123.849  91.144   123.8  91.174   123.8
  91.366 123.812  91.913 123.811  92.418 123.757  92.724 123.749  92.868 123.712
  92.986 123.711  93.062 123.723  93.392 123.733  94.228 123.769  94.364 123.761
  94.565 123.723  94.798 123.738  95.627 123.424  95.877 123.325  96.378 123.165
  96.437 123.126  96.914 122.901  97.017 122.835  97.516 122.742  97.525  122.74
  97.536 122.742  98.196 122.813  98.658 122.781  99.186 122.814  99.555 122.782
  99.742 122.765  99.831 122.765 100.031 122.755 101.071 122.751 101.362 122.799
 101.371   122.8  101.41 122.799 102.521 122.747 103.034 122.761 103.057  122.76
 103.066 122.759 103.912 122.655 104.202 122.649   104.6 122.692 104.699 122.722
  104.77 122.699 105.113 122.588 105.833 122.589 105.881 122.593 105.917 122.591
 106.564 122.592 106.948 122.564  107.21  122.55 107.724 122.553 108.069  122.56
 108.344 122.524 108.586 122.502 108.787 122.551 109.171 122.581 109.436   122.5
  109.74  122.46 110.328 122.577  110.61 122.657 110.782 122.652 111.025 122.658
 111.275   122.7 111.463 122.757 111.598 122.808 111.805 122.899 122.069 122.711
 123.991 122.746 137.074 122.723 137.355 122.669 137.432 122.677  137.61 122.499
 137.677 122.447 137.697 122.428 146.612 122.599 149.045 122.645 151.526 122.706
 155.559 122.732 156.079 122.724 156.502 122.669 157.665   122.8 157.767 122.832
 157.881 122.831 158.256 122.986 165.264 130.226 174.135 139.524 182.647  148.47
 182.846  148.66 183.005 148.818  184.63 150.505 184.737 150.564 184.952 150.684
 185.121 150.818 185.753   151.3 186.526 151.714 189.032 153.305 189.262 153.534
 189.511 153.751 189.641 153.812  190.32 153.975 190.763 154.224 191.006 154.381
 191.218 154.536  191.62 154.807 191.831 154.916 192.226  155.12  192.76 155.342
 192.912 155.421 193.662 155.969 194.618 156.614 195.088 156.865 195.186 156.952
 195.322 157.023 195.727 157.212 196.421  157.61 196.653 157.716 196.789 157.814
 196.854 157.874 197.244 158.165  197.72 158.238 197.791 158.253 197.846 158.272
  198.13 158.516 198.627 158.743 198.785 158.851  199.05 159.017 199.518 159.285
 199.878 159.446 199.986 159.455 201.021 160.003 201.783 160.389 201.957 160.447
 202.593  160.73 207.123 162.762 207.318 162.762 207.635 162.882 208.107 163.084
 208.227 163.132  208.86 163.373 209.723 163.684 209.993  163.77 210.265 163.864
 210.774 163.963 210.873 163.981 210.941 163.979 211.058 164.032 211.819 164.427
 212.214 164.483 212.368 164.578 212.547 164.739 213.034 164.988 213.872 165.324
 213.884 165.329 213.886 165.326 214.419 165.088 214.685 165.203 215.091 165.242
 215.743 165.398  216.01 165.494 216.164  165.51 216.203 165.539 216.564 165.627
 216.869 165.693 217.164 165.731 217.555 165.844 218.103 165.997 218.575 166.125
 218.634  166.14 218.704 166.163 219.251 166.231 219.582 166.257 220.197 166.356
 220.451  166.38 220.695 166.445 221.278 166.598   221.3 166.604 221.325 166.611
 221.352 166.615 221.591 166.654 222.231 166.758 222.291 166.772 222.348 166.775
 222.838 166.892 223.301 166.951 223.415 166.984  223.93 167.059   224.4 167.137
 224.492 167.144 224.897 167.202 225.099 167.234
#Mann= 3 , 0 , 0 
       0     .01       0       0     .01       0 225.099     .01       0
Bank Sta=0,225.099
XS Rating Curve= 0 ,0
XS HTab Starting El and Incr=122.578,0.3, 100 
XS HTab Horizontal Distribution= 5 , 5 , 5 
Exp/Cntr=0.3,0.1

Type RM Length L Ch R = 1 ,577.89  ,51.01,51.01,51.01
XS GIS Cut Line=3
242798.2292641084398976.32167009242748.067263769 4398875.6967619
242709.8104429184398798.95362846
Node Last Edited Time=Jan/10/2021 14:43:58
#Sta/Elev= 490 
       0 124.533    .103 124.541    .574 124.526   1.408 124.424   1.569 124.467
   1.878 124.574   2.633  124.49   3.207 124.436   3.419 124.467   3.805 124.541
   3.934 124.545   4.734 124.494   5.031 124.493   5.215 124.522   5.705 124.518
   6.021 124.526   6.388 124.485   6.634 124.512   6.778  124.51   6.921 124.481
   7.411 124.461   8.058 124.454   8.277 124.389   8.467 124.409   8.654 124.446
   8.827 124.476   9.119 124.458   9.396 124.466  10.089  124.43  10.256 124.429
  10.667 124.478  10.868   124.5  11.564 124.486  11.803  124.49  12.157 124.557
  12.283 124.562  12.673 124.561  12.949 124.551  13.153 124.552  13.505 124.515
   13.93 124.524  14.172 124.505  14.243 124.526  14.875 124.462  15.027 124.436
  15.382 124.467  16.284 124.512  16.591 124.447  16.866 124.406   17.08 124.409
  17.639  124.42  18.359 124.424  18.386 124.406  18.586  124.43  18.982 124.413
  19.054 124.406  19.097 124.412  19.857 124.425  20.129 124.434  20.185 124.441
  20.431 124.485  21.001 124.484  21.145  124.47  21.243 124.477  21.973  124.42
  22.235 124.403   22.44 124.425  23.092   124.4  23.299 124.386  23.476 124.377
  24.193 124.418  24.459 124.471  24.682 124.432  25.193  124.44  25.229 124.434
  25.363 124.367  25.416 124.354  26.499 124.244  26.528 124.244  26.635 124.216
  27.235 124.204  27.339 124.256  28.536 124.832  28.665 124.864  29.254 124.994
  30.041 125.229  30.163 125.248  30.537 125.222  30.994 125.239  31.533 125.261
  31.924 125.287  32.335 125.292   32.46 125.296  32.548 125.288  32.719 125.302
  33.405 125.269  33.636 125.279  34.148 125.334  34.559 125.363  34.807 125.321
  35.271 125.298  35.425 125.323  36.292 125.321  36.689 125.318  37.116 125.257
  37.331 125.277  38.411 125.221  38.504 125.223  38.951 125.275  39.371  125.28
  39.511 125.256  40.124 125.167  40.531  125.21  40.575 125.208  41.386 125.005
  42.126 124.875  42.617 124.748  42.649 124.742   43.44  124.47  43.539 124.413
  43.767 124.374  44.506 124.359  44.631 124.361  45.253 124.382  45.377 124.383
  45.713   124.4  46.623 124.487  46.707 124.496  47.007 124.504  47.184 124.523
   47.39 124.516  48.328 124.473   48.46 124.474  48.642 124.553    48.8 124.558
  49.375  124.55  49.905 124.482  50.393 124.569  50.466 124.565  51.155 124.611
  51.373 124.636  51.417 124.638  51.955 124.631  52.391 124.664  52.612 124.683
  53.385 124.692  53.442 124.688  53.767  124.68  53.997   124.7   54.64 124.804
   55.05 124.769   55.14 124.789  55.198 124.818  55.423 124.904  56.526 124.855
  56.739  124.86  56.812 124.865  57.334 124.969  57.964 124.949  58.427 125.004
  58.611 124.969   58.72 124.975  59.109 125.043  59.619 125.065  60.269 125.088
  60.551 125.095  61.619 125.185  61.734 125.206  63.603 125.195  64.139  125.19
    64.6 125.197  65.415 125.205  65.503 125.231  66.057 125.174  66.808 125.109
  67.119 125.106  67.264 125.114  67.512 125.144  68.596 125.195  68.871  125.23
   68.99 125.212  69.556 125.135  70.262 125.047  70.428 124.921  70.655 124.824
  71.041 124.792  71.553 124.734  71.795 124.745  72.064 124.752  72.282 124.796
  72.615 124.822   72.81 124.811  73.471 124.789  73.604 124.777   73.77  124.75
  74.522  124.81  74.804 124.822  74.929 124.803  75.455  124.71  75.667 124.721
   76.13 124.734  76.855 124.799  76.892 124.779  77.589 124.727  77.684 124.732
  77.746 124.761  78.824 124.969  79.045  125.04  79.263  125.05  79.646 125.089
  80.032 125.051  80.471 124.951  80.784 125.035  80.863 125.064  80.902 125.065
  80.947  125.05   81.66 124.921  81.759 124.928  82.142 124.823  82.571 124.667
  82.917   124.6  83.533 124.303  83.748 124.222  83.883 124.223  84.571 124.182
  84.959 124.098  85.283 123.774  85.454 123.575  85.684 123.122  85.766 122.995
   86.76 122.607  87.032 122.533  87.198 122.501  87.805 122.708  89.703 122.702
  89.891 122.718  90.074 122.649  90.361 122.565  90.422 122.568  90.814 122.635
  91.088 122.799  91.308 122.787  92.002 122.773  92.175 122.771  92.838 122.759
  93.157 122.715  93.295 122.709  93.827 122.675    94.1 122.628    94.2 122.647
  94.373 122.635  94.702 122.573  95.991 122.573   97.91 122.502  99.395 122.525
 101.287 122.492 101.473 122.496 102.901 122.654 103.476 122.652 104.044 122.592
 104.265 122.556   105.3 122.515  106.05  122.49 106.361 122.483 106.525 122.486
 107.775 122.718 108.509 122.679 109.709 122.637 110.387 122.588 111.433 122.484
 111.776 122.504 112.172 122.475 112.967 122.496 114.316 122.586 114.648 122.477
 115.141 122.439 115.936 122.403 116.746 122.629 117.901 122.724 118.165 122.716
 118.841 122.556 119.881  122.56 120.925 122.643 121.198 122.608 121.618 122.588
 124.138 122.568 125.142 122.605 125.918 122.829 126.021 122.848 126.065 122.897
 126.444 123.129 126.587 123.176 127.262 123.405 127.804 123.655 128.106 123.729
 128.386 123.899 128.549 123.955 129.204 124.052 129.372 124.058  129.53  124.06
 129.845 124.222 130.545 124.258 130.633 124.265 130.724 124.295 130.837 124.288
 131.484 124.323 132.037 124.457 132.751 124.674 132.805 124.613 133.281 124.785
 134.044 124.965 134.759 125.187 134.866 125.202 135.473 125.265 135.627 125.247
 135.758 125.248 136.334  125.19 136.529 125.221 136.711 125.245  136.87  125.29
 137.456 125.341  137.53 125.353 137.725 125.354 137.838 125.343 138.114 125.386
 138.356 125.381 138.561 125.408 139.016 125.434 139.124 125.437 139.768 125.494
 140.153 125.439 140.223 125.447 141.143 125.595 141.401 125.542 141.636   125.5
 141.903 125.569 143.222 125.718 143.345 125.697 143.829 125.701  144.03 125.715
  144.62 125.731 144.989 125.718 145.127 125.786 145.406 125.843 145.735 125.855
 146.138  125.85 146.245 125.877  146.37 125.874 146.925 125.898 147.211 125.973
 147.365 126.029 148.089 126.061 148.865 126.136 148.903 126.141 149.524 126.292
 149.853 126.312 150.437 126.333 150.685 126.323 151.235 126.422 151.611 126.488
 151.858  126.49   152.3  126.52 152.465 126.529 153.142 126.629 153.732 126.718
 153.781 126.721  153.88 126.667 154.472 126.704  154.58 126.723 154.928 126.753
 155.799 126.888 156.027  126.88 156.285 126.935 156.696 126.945 157.323 127.025
 157.517 127.038 157.576 127.052 157.961 127.054  158.58 127.088 158.954 127.088
  159.32 127.113 159.592 127.184 159.937 127.218 160.031 127.216 160.099 127.232
 160.298  127.25 160.755 127.239 161.088 127.252 161.352 127.302 161.561 127.364
 161.841 127.385 162.222 127.416 162.377  127.41 162.947 127.456 163.417 127.491
 163.707 127.542 164.354 127.642 164.749 127.628 164.861 127.639 165.248 127.727
 165.924 127.789 166.487 127.813 166.611 127.796 166.945 127.738 167.062 127.845
 167.305 127.873 168.146 127.901 168.295 127.926 168.594 127.947 168.927 127.979
 169.141 127.976 169.393 127.965 169.483 127.966 170.408 128.022 170.444 128.028
 170.685 128.021 170.713 128.024 170.947 128.083 171.508 128.061 172.259 128.043
 172.689  128.12 172.773 128.137 173.599 128.145 173.948 128.187 174.151 128.173
 174.367 128.181 174.589 128.206 174.821 128.201 174.931 128.232 175.738 128.253
 175.798 128.243   176.2 128.244 176.785 128.326 177.033  128.31 177.576 128.336
  177.95 128.419  178.08  128.43 178.171 128.422 178.862 128.374 179.169 128.369
 179.799 128.434 179.999 128.463  180.43 128.429 180.937 128.468 181.246 128.497
 181.577 128.522 182.038  128.57 182.182 128.568 183.016 128.596  183.37 128.603
 183.611 128.611 184.077 128.604 184.193 128.604 184.422 128.672 185.157 128.718
 185.492 128.736 185.593 128.736 185.769  128.73 186.186 128.687 186.458  128.79
 187.199 128.748 187.613 128.734 187.699 128.734 188.517 128.822 189.707  128.97
 189.974 128.957 190.477 128.918  190.54 128.931 191.302 129.011   191.6 129.045
  191.85  129.08 191.874 129.073 191.972 129.072 192.295 129.054 192.623  129.04
 192.676 129.043 193.014 129.079 193.963  129.19 194.006 129.174 194.132 129.183
 194.742 129.252 194.966 129.289 196.066 129.544  196.11 129.535 196.205  129.54
 196.492 129.573 196.544 129.574  196.86   129.6 197.197 129.672 198.185     130
#Mann= 3 , 0 , 0 
       0     .01       0       0     .01       0 198.185     .01       0
Bank Sta=0,198.185
XS Rating Curve= 0 ,0
XS HTab Starting El and Incr=122.553,0.3, 25 
XS HTab Horizontal Distribution= 5 , 5 , 5 
Exp/Cntr=0.3,0.1

Type RM Length L Ch R = 1 ,526.88  ,71.81,71.81,71.81
XS GIS Cut Line=3
 242730.265049324398985.38630616242703.8831911644398901.04273036
242681.4085240324398829.19055909
Node Last Edited Time=Jan/10/2021 13:45:05
#Sta/Elev= 382 
       0 124.704    .045 124.707   1.062 124.765   1.175 124.766   1.483 124.697
   1.714 124.724   1.965 124.693   2.203 124.681   2.511 124.683   3.138 124.624
   3.173  124.66   3.507 124.664   3.981  124.66   4.597 124.643   4.709  124.64
   4.965 124.658   5.404 124.654   5.731  124.67   6.001 124.679    6.09 124.651
    6.43  124.68   6.522 124.716   6.963 124.662   7.129 124.647   7.555 124.599
   7.687 124.611    7.97  124.59   7.989  124.59   8.137 124.566   8.161  124.56
   8.749 124.608   9.131 124.643   9.519 124.589   9.653 124.582   9.884 124.642
  10.009 124.632  10.996 124.646  11.146 124.633  11.395 124.646  11.821 124.646
   12.01 124.639  12.315 124.621  12.997 124.612  13.096 124.603  13.603 124.621
  13.988 124.603  14.123   124.6  14.512  124.54  14.593  124.54   15.11 124.585
  15.725  124.58   16.04 124.599  16.277 124.693  16.388 124.687  17.097 124.646
  17.329 124.662   17.93 124.584  17.962 124.592  19.037 124.614  19.124 124.603
  19.165 124.604  19.675 124.576  19.961 124.583  20.831 124.555  21.049  124.55
  21.117 124.565  21.352 124.587  21.926 124.597  22.451 124.555  22.576 124.543
  22.641 124.552   23.05 124.556  23.797 124.525  23.983 124.532  24.303 124.551