Flow Title=flow data
Program Version=5.07
Number of Profiles= 1 
Profile Names=PF 1
River Rch & RM=trib. licking cr,GP              ,970.69  
      10
Boundary for River Rch & Prof#=trib. licking cr,GP              , 1 
Up Type= 0 
Dn Type= 3 
Dn Slope=0.0011
DSS Import StartDate=
DSS Import StartTime=
DSS Import EndDate=
DSS Import EndTime=
DSS Import GetInterval= 0 
DSS Import Interval=
DSS Import GetPeak= 0 
DSS Import FillOption= 0 
