Geom Title=Site 479 Geometry data
Program Version=5.07
Viewing Rectangle= 438195.840750496 , 438859.058673194 , 4898759.4732 , 4897660.6068 

River Reach=cobbossee stream,RiverCL         
Reach XY= 5 
       438573.08       4898748.7       438493.73      4898472.73
       438511.05      4898205.77       438544.77       4897925.2
        438633.9      4897671.38
Rch Text X Y=438588.285,4898479.37
Reverse River Text= 0 

Type RM Length L Ch R = 1 ,987.39  ,217.02,217.02,217.02
XS GIS Cut Line=3
438852.5565366974897860.37527523438594.5070221084897783.55362564
438360.8728735634897714.00045977
Node Last Edited Time=Jan/16/2021 13:39:27
#Sta/Elev= 395 
       0      10   9.607   8.977  18.181   7.699  26.693   6.405   31.44   5.845
  32.575   5.835  35.859   5.795  36.094   5.782  36.141   5.788  36.226   5.785
  36.259   5.784  36.587   5.791  36.643   5.789  37.736    5.68  37.856   5.668
  38.088   5.694   38.18   5.694  39.287   5.598  39.472    5.64  39.606    5.63
  39.735   5.626  40.955    5.55  41.111   5.544  41.281   5.541  42.456   5.508
  42.632   5.501  42.843   5.499  43.947   5.447  44.147   5.439  44.409   5.435
  45.438     5.4  45.649   5.384  45.983   5.365  46.947   5.337  47.158   5.304
  47.557    5.36  48.445   5.337  48.692   5.343  49.597   5.338  49.787   5.355
  54.176   5.858  55.588   5.822  63.621   6.587  65.046   6.577  73.108   6.415
  74.102   6.429  75.362    6.43  75.734   6.419  76.092   6.424  76.562    6.45
   76.97    6.44  78.835   6.451  79.803   6.476  80.398   6.494  80.773    6.49
  81.261   6.425  82.325   6.397  83.178   6.406   83.51   6.398  83.777   6.396
  85.097   6.515  85.574   6.513   86.72   6.507  88.119   6.656  88.233   6.665
   89.39   6.647  89.711   6.641  89.751   6.639  91.158   6.575  91.286    6.57
  91.464   6.558  92.187   6.593  92.644    6.61  92.914   6.597   93.01   6.584
  93.342   6.587  94.146   6.546  94.521   6.562  94.578    6.57  94.746    6.57
  95.649   6.578  95.893   6.575  96.129   6.576  96.863   6.573  97.177   6.568
  97.268   6.582  97.665   6.621  98.703   6.532   98.76    6.53 100.164   6.531
 100.336   6.531 101.629   6.516 101.913   6.518 102.221   6.506  103.48   6.512
 103.902   6.523 104.848    6.56 105.048    6.49 105.582   6.498 106.363    6.55
 106.602   6.514 107.222   6.511 107.866   6.535 108.131   6.529 108.837    6.52
 109.378   6.564 109.648    6.54 110.445   6.533 110.891   6.532 111.169    6.51
 112.045   6.539 112.411   6.564 112.689   6.544 113.629   6.539 113.919   6.557
 114.189   6.553 114.463   6.543 115.413    6.47  115.69   6.425 115.895   6.446
 116.898   6.383 117.322   6.359 118.398   6.373 118.762   6.333  119.77   6.241
  120.21   6.262 121.403   6.298  121.66   6.297 122.908   6.306 123.112   6.318
 124.429   6.334 124.568   6.332 125.927   6.322 126.042   6.322 126.139   6.319
 127.428   6.281 127.672    6.29 127.674    6.29  127.76   6.287 128.919   6.242
 129.124   6.245 129.233   6.275 129.481   6.263 130.189   6.255 130.483   6.247
 130.559   6.246 130.764   6.223 131.243   6.213 131.929     6.2 132.101   6.157
 132.266   6.217 132.938    6.24 133.175   6.292 133.576   6.323 133.633   6.322
 133.711   6.331 134.058   6.348  150.37   5.858 154.305   5.729  155.34   5.714
 156.145   5.686 157.624    5.67 158.188   5.653 158.399   5.637 158.597   5.637
 159.086    5.62 161.476   5.605 162.827   5.579 164.284   5.451  164.31    5.45
 164.319    5.45 164.333   5.446 164.335   5.445 164.338   5.445 176.871   2.149
 183.574   -.018 184.547   -.034 185.491   -.049 185.638   -.093 188.424   -.196
 189.592   -.215 189.984   -.226 190.658   -.256   191.8   -.318 192.104    -.36
 192.225   -.411 192.555   -.388 192.791    -.39 193.578   -.419 193.762   -.382
 194.084   -.398 194.183   -.415 194.247    -.41 194.253   -.409 194.269   -.412
 199.151   -.642 203.364   -.616 266.826   -.483 269.242   -.476 277.537   -.451
 283.715   -.608 284.323     -.6 287.691   -.534 288.519   -.521 288.948   -.516
 290.066   -.494 290.883   -.506 291.497    -.51 294.258   -.529 295.858    -.54
 298.528    -.54 298.745   -.538 299.002   -.529 300.191    -.51 300.559   -.523
 301.612   -.544 302.114    -.54 303.044   -.544 303.671   -.569  304.49   -.543
 305.236   -.525 305.932   -.553 306.808   -.558 307.375   -.554 308.373   -.526
  308.82   -.521 309.918   -.558 310.248   -.562 311.482   -.544 311.695   -.541
 313.037   -.559 313.124   -.559 314.248   -.544 314.549    -.54  314.56    -.54
 315.982   -.519 316.045    -.52 317.402   -.547 317.525   -.551 318.821   -.534
 319.005    -.53 320.239   -.572 320.484   -.582 321.667   -.574 321.974    -.57
  323.09   -.578 323.453   -.572 324.513   -.557 324.934   -.554 325.932    -.54
 326.415    -.54 327.345   -.502 327.887   -.499 328.755   -.566  329.36   -.573
 330.175    -.55 331.562   -.555 332.314   -.589 333.008   -.565 333.798   -.537
 334.431   -.531 335.288    -.56 335.856   -.545 336.762   -.572 337.267    -.59
 338.252   -.556 338.692   -.559 339.717   -.573 340.107   -.559 341.196   -.568
 341.524   -.569 342.676   -.538 342.942   -.545 344.156   -.561 344.359   -.563
 345.628   -.598 345.768   -.598 347.116   -.561 347.196   -.561 348.597    -.56
 348.614    -.56 348.972   -.555 350.056   -.541 350.134   -.539 351.505    -.52
  351.67   -.526 352.933   -.545 353.192   -.544 354.352   -.568 354.701    -.57
 355.788   -.577 356.228   -.574 357.226   -.567 357.756   -.585 359.452   -.604
 360.091   -.586  360.81   -.575  361.54   -.569 362.346   -.556 362.967   -.542
 363.859    -.56 364.405    -.56 365.384   -.567 365.843    -.57 366.919   -.563
 367.287   -.574 368.439   -.548 368.724   -.534 369.967   -.541 370.164    -.54
  371.49   -.549 371.593   -.549 373.003    -.57 373.023    -.57 373.362   -.565
 374.462   -.551 374.511   -.551 375.886   -.552 376.003   -.548 378.506   -.554
 378.984   -.565 380.148   -.496 380.468   -.474 381.573   -.386 381.964    -.38
 382.404     -.2  384.46    .753 385.117   1.158 386.261   1.577 387.253   1.753
  388.04    1.89 388.755   1.918 389.533   1.982  390.18    1.97 391.026   1.966
 391.957   2.011 392.399   2.042 393.632   2.093 393.966   2.111  394.85   2.148
 395.862   2.167 396.982    2.22 397.284   2.228 399.784   2.242 400.134   2.242
 401.452    2.26 401.549   2.264  403.13   2.314 403.776   2.319 404.629   2.353
 405.232   2.366 405.337    2.37 429.055   3.405 434.997   3.676 460.251   4.782
 460.592   4.755 460.905    4.78 460.993   4.762 461.376    4.74 462.427   4.686
 462.887     4.7 463.856   4.686  464.39    4.69 465.295   4.696 465.909    4.73
 466.741   4.743 467.427    4.73 468.184   4.745 468.942   4.724 469.627   4.718
 470.462    4.74 471.065   4.732 471.972   4.733 472.498   4.719 473.475    4.66
 473.933   4.656  474.99   4.663 475.372   4.665 475.719   4.655 476.527   4.623
 479.338   4.561 479.527   4.557 479.697   4.551 479.851   4.553 479.991   4.552
 480.241   4.546 483.475   4.543 484.692   4.523 487.207   4.614 489.599   4.511
 489.725   4.504 490.433   4.491 490.915   4.483 491.354   4.474 513.009       4
#Mann= 3 , 0 , 0 
       0     .01       0       0     .01       0 513.009     .01       0
Bank Sta=0,513.009
XS Rating Curve= 0 ,0
XS HTab Starting El and Incr=-0.492,0.3, 35 
XS HTab Horizontal Distribution= 5 , 5 , 5 
Exp/Cntr=0.3,0.1

Type RM Length L Ch R = 1 ,770.37  ,230.6,230.6,230.6
XS GIS Cut Line=3
438772.9655822754897991.61461072438536.7866173144897991.61461072
438276.7411223464897991.61461072
Node Last Edited Time=Jan/16/2021 13:16:53
#Sta/Elev= 310 
       0  15.075   3.551  15.088   5.513  15.139  11.278  15.135  11.709  15.148
  12.075  15.149  12.544  15.151  12.658  15.136   12.85   15.15  12.902  15.148
  12.928  15.152  14.236  15.101  14.667  15.008  15.542  14.916  16.427  14.859
   16.73  14.809  17.209  14.943  35.645  12.715  47.307  11.187  50.339  10.846
  56.634  10.133  68.731   8.745  68.762   8.744  70.182   8.704  70.597   8.677
  70.809   8.677  71.603    8.63  71.677   8.633  71.908    8.61  72.356   8.599
   72.97    8.54  73.106   8.551  73.944    8.61  74.283   8.629  74.365   8.628
  74.446   8.636  75.319   8.642  75.989   8.672  77.156    8.68  77.431   8.692
   77.63     8.7  78.421   8.683  78.727   8.656  78.983   8.685  79.426   8.698
  79.849   8.678  80.451   8.629  80.741   8.679   81.06   8.688  81.863   8.683
   82.38    8.69  82.557   8.666  82.719   8.692  83.919   8.676  85.459   8.575
   85.56   8.573  85.694   8.583  85.984   8.605  86.731   8.676  86.857   8.675
   88.03   8.626   88.07   8.619   88.46   8.577  88.688   8.658  88.889   8.679
  94.201   5.801  96.685   4.759  99.407   3.649 103.691   1.708 104.591   1.292
 105.432    .955 105.624    .986 106.407    .965 106.484    .985 107.605     .85
 107.844    .826 107.871    .832 108.316    .821 109.191    .756 109.795    .699
 110.045    .639 110.502    .576 111.617    .519  111.65    .524 111.731    .513
 112.011    .504 113.204    .455 114.207    .414 114.486    .401  114.87     .39
 115.183    .438 115.326    .475 115.519     .47 116.691    .319 117.303     .31
 117.717    .327 118.283     .29 119.649    .246 119.713     .26 119.812    .258
 120.157    .257 120.975    .313 121.251    .305 121.462    .271  121.86    .304
 122.069    .301 122.296    .287 122.451     .26 122.637    .263 122.727    .264
 123.249    .191 124.015    .276 124.496    .288 124.919    .247 125.387    .264
 126.236    .196 126.517    .186 126.752    .194 128.014    .207 128.088    .204
 128.135    .203 128.564    .207 129.222    .256 129.418    .224  130.15     .06
 130.218    .062 130.289    .056 130.671    .088 130.753    .087 131.727     .16
 132.059    .102 132.544    .153 133.296     .11 133.446    .142 134.321     .17
 134.823    .163 136.075    .099 136.191    .098 136.595     .07 137.215    .081
 137.481    .035 137.972    .021 138.494   -.055 138.807   -.102 140.276   -.284
 140.379   -.283 141.738   -.364 142.061   -.372 143.344   -.358  145.07   -.361
 146.877    -.34 147.282    -.38 148.212   -.435 149.111   -.468 149.295   -.472
 149.384   -.455 149.781   -.457 149.942   -.491 150.125   -.477 154.641   -.502
 204.755   -.557 205.816   -.597 207.468   -.545 209.291   -.447 210.227   -.517
 219.577   -.517 234.526   -.554 236.179   -.552 262.648    -.53 264.554   -.522
  265.29   -.532 265.766   -.531 266.422   -.514 267.676   -.544  267.83   -.555
 268.325   -.547 269.372   -.534 270.817   -.534 270.968   -.538  272.06   -.566
 272.596   -.554 273.319   -.591 274.257   -.541 274.588   -.524 275.649   -.502
  275.82   -.502 275.916   -.504 276.257     -.5 277.482   -.514 277.826   -.515
 278.462   -.525 279.023   -.543 279.252   -.545 280.505   -.588 281.349   -.571
 281.983   -.553 283.443    -.55 283.463   -.549 283.508   -.551 284.556   -.542
 285.158    -.57 285.636   -.567 286.485   -.539 286.828   -.528 286.976   -.527
 288.307   -.538 289.087   -.544 289.774    -.55 291.188   -.561 291.247    -.56
  291.38   -.559  292.39   -.547 292.927    -.54 293.515    -.53 294.622    -.55
 294.652    -.55 300.152   -.492 303.022   -.509 303.167   -.499 305.927   -.502
 316.789   -.554 321.439   -.554 333.723   -.527 337.411   -.572 357.089   -.579
 357.115    -.58 357.138   -.579 357.147    -.58 357.287    -.58 357.411   -.578
 357.601   -.578 367.392   -.537 367.807    -.54 368.287   -.499  369.42   -.428
 369.482   -.425 369.662   -.403 370.617   -.282 370.875    -.25 377.872    2.44
 378.834   2.784 379.231   2.934 379.389   2.984 380.304   3.761 381.339   4.142
 396.477   4.344  397.26   4.484 397.611   4.551  402.47   5.734 411.209   5.143
 413.731   5.106 430.595   5.033   447.7       5 447.779    4.99 448.693   4.906
 449.448   4.903 449.842   4.913 450.677   4.927 451.037   4.935 451.217   4.926
 452.374   4.865 453.217   4.878  453.71   4.905 454.687   4.944 455.009   4.958
 455.174   4.953 456.203   4.922 456.964    4.93 457.398   4.932 458.257   4.958
 458.689   4.972 458.924   4.973 460.165   4.974 461.215    4.96 461.651    4.96
 462.443   4.965 463.013   4.975 463.357   4.978 464.229   5.004 465.295   5.045
 465.447    5.05 465.705   5.067 466.742   5.091 467.294    5.08 468.057   4.995
 469.316    4.96 469.381   4.959 469.503   4.966 470.624   4.986   471.2   4.945
 471.856   4.871  473.06    4.86  473.08    4.86 473.118   4.861  474.36   4.881
 474.935   4.899 475.634   4.895 476.779   4.897 476.905     4.9 477.174   4.934
 478.226   5.044 478.774    5.15  479.94   5.274  480.89   5.613 481.431   5.625
  481.63   5.708 481.968   5.761  482.15   5.775 487.201   5.935 496.225      10
#Mann= 3 , 0 , 0 
       0     .01       0       0     .01       0 496.225     .01       0
Bank Sta=0,496.225
XS Rating Curve= 0 ,0
XS HTab Starting El and Incr=-0.447,0.3, 52 
XS HTab Horizontal Distribution= 5 , 5 , 5 
Exp/Cntr=0.3,0.1

Type RM Length L Ch R = 1 ,539.77  ,188.12,188.12,188.12
XS GIS Cut Line=3
438776.5628681664898241.03677499 438510.089122984898220.64703988
438250.8852458214898200.81357227
Node Last Edited Time=Jan/16/2021 11:53:24
#Sta/Elev= 302 
       0  11.819    .765  11.887   3.083  11.911   5.618  11.938   8.747  11.889
  10.144  11.859  25.861   9.791  30.881   8.651  31.066   8.635  32.451     8.4
  33.074   8.378  33.653   8.482  33.897   8.416  34.936   8.441  35.267   8.485
  35.378    8.46  36.802   8.346  36.849   8.346  36.863   8.342    37.1   8.324
  37.455   8.309  38.122   8.286  38.201   8.265  38.456   8.192  38.559   8.142
  38.802    8.08  39.227   7.932  39.982   7.835  40.365   7.804  40.479   7.793
  41.911   7.622  42.498   7.613  43.293   7.593  43.463   7.537  44.489   7.553
  44.899   7.573  44.991    7.57  46.444   7.634  46.524   7.645  46.537   7.641
  46.888   7.688  47.741   7.756  48.156   7.833  48.519   7.894  48.835   7.957
  49.236   8.046  49.563   8.125   51.41   8.478  51.535   8.476  52.144   8.599
  53.006   8.735  53.049   8.705      54   8.682  54.548   8.718  55.895   8.754
   55.91   8.747  56.104   8.758  56.942   8.803  57.479   8.844  57.701   8.882
  58.135   8.925    58.4   8.825  59.212   8.921  60.585   8.926  60.907   8.937
  61.155   8.949  62.315   8.911  63.522   8.967  64.208    9.02  64.653   9.026
   65.82   9.007  65.992   9.016   66.85   9.054  67.474    9.14  67.952   9.205
  68.407   9.258  69.042   9.269  70.185   9.175  71.104   9.178  72.057    9.14
  72.611   9.149  72.863   9.175  73.488   9.125  73.615   9.152  74.147   9.121
  75.581   9.133  76.022   9.165  77.559   9.151  78.765    9.19  78.816   9.189
   78.83    9.19  79.873   9.287  81.039    9.24  81.513   9.232  84.525   9.411
  87.681   9.507  87.849   9.518  87.972    9.51  88.347   9.561  88.789   9.557
  89.938   9.508   90.05   9.515  90.899   9.471  91.218   9.531  91.376   9.512
  91.831   9.501  92.425   9.455  94.607   9.217  97.383   9.135  98.544   9.122
 103.282   9.125 104.401   9.095 105.852   9.057 106.056   9.053  106.81   9.068
 107.449   9.103 108.501   9.096 109.061   9.049  109.21   9.055 110.193   9.006
 111.001   8.916  111.27   8.938 111.452   8.906 111.888    8.87 112.064   8.883
 112.954   8.789 113.579   8.736 113.993   8.662 115.494   8.618 115.883   8.594
 116.363   8.559 116.675   8.562  116.82    8.54 117.994    8.63 118.336   8.656
 118.343   8.658 118.426   8.662 119.656   8.688 119.952    8.69 120.967   8.727
 121.589   8.712 122.264   8.657 123.238   8.655  123.58   8.649 124.863   8.602
 124.894   8.598 124.914   8.599 124.951   8.597  125.73    8.57 126.269   8.558
  126.45    8.53 126.807   8.496 127.496   8.506 127.884   8.516 128.116   8.515
 128.788    8.53  129.39   8.533 130.079   8.564 131.927   8.647 132.788   8.715
 134.316   8.805 134.384   8.808 134.542   8.795  135.25   8.779 136.005    8.83
 136.258   8.791 136.513   8.772 137.259   8.823 137.677   8.839 137.906   8.861
 138.733   8.811 139.839    8.75  140.96   8.659 142.773   8.635 143.087   8.623
 144.728   8.583 144.846   8.581 144.947   8.582  145.71   8.599 146.519   8.624
 146.761   8.631  147.69   8.665 148.355   8.623  148.77   8.571 149.383   8.541
 149.938   8.506 150.016   8.496 150.233   8.496 150.935   8.453 151.142   8.458
 156.948    6.98 161.148    5.92 166.017   4.629 180.009    .882 181.599    .462
 181.661    .456 181.797    .453 182.779    .349 183.167    .228 183.605    .202
 184.427    .168 184.686     .09 185.619    -.01 185.993   -.026 186.125   -.062
 187.519    -.09  187.52    -.09 188.501   -.129 188.835   -.176 189.161   -.184
 189.461   -.201 190.207   -.313 190.497   -.302 190.843   -.256 190.973   -.243
 191.528     -.3 191.622    -.31  191.64    -.31 192.521   -.315     193   -.328
 193.423   -.372 194.021   -.422 194.379   -.535 195.199   -.564 195.487   -.529
  195.68   -.553 196.484   -.539  196.52   -.546 223.424   -.557 236.293    -.51
 267.253   -.511 313.114   -.512 322.073   -.516 326.471   -.504 334.933   -.712
  343.05   -.756  349.51    -.82 354.778    -.79 355.197   -.791 365.546   -.502
 368.237   -.431 368.385   -.431 368.484   -.432 368.912   -.435 376.745   -.548
 377.582     -.5 378.621   -.485  378.96   -.484 379.126   -.473 380.217   -.424
  380.98   -.366  381.48   -.325 382.537   -.305 382.754   -.299 382.818     -.3
 384.121   -.238 384.579   -.223 385.467   -.184 386.328   -.165 386.824   -.157
 388.084   -.109 388.181   -.108  388.52   -.108 389.496   -.087 389.888   -.088
 390.789   -.026 391.729    .017 392.093    .016 392.979    .101 393.412    .137
 393.542    .142 394.743    .174 395.271    .224 396.072    .313  397.01    .389
 397.408    .419 398.695    .506  398.74     .51 398.759    .514 399.988     .75
 400.552    .894 401.235    .985  402.31   1.102 402.559    1.18 403.537   1.467
  403.79   1.529 404.118   1.668 405.569   2.004 405.858   2.007 471.417  10.148
 474.139  10.195 475.147  10.223 476.045  10.267 496.215    10.5 512.874  10.942
  514.54  11.038 516.474  10.912 516.553  10.903 516.817  10.907 516.975  10.904
 517.017  10.902 527.214  10.898
#Mann= 3 , 0 , 0 
       0     .01       0       0     .01       0 527.214     .01       0
Bank Sta=0,527.214
XS Rating Curve= 0 ,0
XS HTab Starting El and Incr=-0.67,0.3, 42 
XS HTab Horizontal Distribution= 5 , 5 , 5 
Exp/Cntr=0.3,0.1

Type RM Length L Ch R = 1 ,351.65  ,218.86,218.86,218.86
XS GIS Cut Line=3
438770.6437700664898420.85804467438497.9032595654898408.36716366
438202.3428869934898394.83118604
Node Last Edited Time=Jan/16/2021 11:48:25
#Sta/Elev= 360 
       0   9.917    .086   9.912   1.137   9.842   1.716   9.839   2.744   9.813
   3.305   9.805     4.7   9.792   4.829   9.792   4.866   9.794   4.919    9.79
   5.202   9.779   6.184   9.756   6.581   9.786   7.087   9.753   7.131   9.751
   8.301   9.786   8.467   9.781   9.886   9.776  10.482   9.786  11.437   9.805
  12.448    9.78  12.945    9.78  14.365   9.752  14.421   9.749  14.611   9.747
  15.545   9.735   15.77    9.74  16.316   9.756  16.504   9.749  16.593    9.75
   16.61   9.754   16.66   9.757  17.958    9.84  18.004   9.841  18.074   9.711
  18.359   9.708  19.444     9.7  19.571   9.703  20.122   9.674  20.181   9.669
  20.969   9.746  21.193   9.772  22.004   9.692  22.421   9.633  22.759   9.634
  23.815   9.581  23.874   9.578  24.193   9.573   24.36   9.582  25.078   9.801
  25.469    9.78   27.36   9.711  29.998   9.591  31.341   9.567  32.166   9.607
  33.627    9.59  33.645    9.59  36.447   9.687  38.456    9.73   41.35   9.786
  41.472   9.784  41.582   9.787  42.948   9.808  42.989    9.81  43.627    9.81
  44.221   9.808  44.666   9.814  45.224   9.808  48.675   9.794  51.155   9.814
  52.567   9.779   53.23   9.796  53.909   9.821  57.155   9.647   57.56   9.477
  58.996   9.443  59.102   9.452  59.436   9.547  59.605   9.551  60.116   9.525
  61.311   9.361  61.979    9.42  62.173   9.438  63.326   9.353  63.368    9.35
   63.41    9.35   64.01    9.38  65.531    9.37  65.572    9.37  65.591   9.372
  66.532    9.43  67.249   9.416   67.94   9.423  70.273    9.42  70.997     9.4
  76.018   9.458  77.529   9.485  78.192   9.516  78.334   9.514  82.197   9.505
  83.504   9.421  83.639   9.378  83.862     9.4  84.609   9.392  84.794   9.391
    85.4   9.392  85.568   9.373   85.82   9.334  86.843   9.283  86.881   9.281
  86.891   9.279  88.175   9.225  88.554   9.254  89.468   9.278   90.09   9.268
  90.421   9.217   91.19   9.202  91.792   9.224   92.41   9.201  93.432   9.207
  93.805   9.202  94.962    9.22   95.87   9.235  96.555   9.233  96.697   9.229
  96.733   9.226  97.878   9.167  98.299   9.139  98.406   9.168   99.18   9.164
  99.913   9.155 100.063   9.166 100.478   9.155 101.912   9.171 102.856   9.181
 103.333   9.175 104.487   9.164  108.33   9.132 111.767   9.096 112.047   9.071
 112.239   9.071 113.235   8.945 113.294   8.971  113.36   8.934 113.448   8.937
  114.77   8.996 115.187   8.983 116.269   8.907 117.153   8.915 117.749   8.975
 119.036   8.779 119.228   8.744 119.853   8.706 120.374   8.712 120.898   8.733
 121.007   8.688 121.281   8.703 121.456   8.719 122.185   8.752 122.266   8.746
 123.124    8.77 123.252    8.77 123.283   8.775 123.437   8.764 124.602   8.744
 125.029   8.739 125.957   8.755 126.862   8.757 127.317    8.76 128.675    8.71
 128.681    8.71 129.634   8.757 129.773   8.715 130.018   8.697 130.756   8.711
 130.802   8.703 130.855   8.706 131.346   8.647 131.779   8.665 132.486   8.682
 132.893   8.685 134.189    8.74 134.904   8.722 135.711   8.715 137.109   8.687
 137.241   8.682 137.536   8.688 138.214    8.72 138.738   8.705 139.854   8.675
 140.223   8.649 140.305    8.65 140.807   8.577 141.381   8.555 142.284   8.462
 142.449    8.45 142.537   8.445 143.775   8.346 144.556     8.3  145.08   8.272
 146.121   8.216 146.324   8.207 146.576   8.188 147.371   8.136 148.024     8.1
   148.6    8.07 148.724   8.057 150.078   8.009 150.152   8.005 150.317   7.982
 150.656   7.929 150.976   7.888 151.095   7.893 151.677   7.888 152.214   7.832
 152.675   7.801 153.154   7.779 153.413   7.749 154.508   7.659 154.583   7.652
 154.612    7.65 154.652   7.647 155.979   7.508 156.525    7.46 156.528    7.46
  156.57   7.454 173.709   4.826 174.182   4.834 174.436   4.798 174.721   4.709
 174.965   4.697 175.417   4.722 177.067   4.582 191.551   3.462 194.578    3.17
 195.391   3.133 197.039   2.918 199.851   2.608 201.083   2.457  201.64   2.431
 201.665   2.435 201.739   2.435 202.731   2.386  203.72   2.316 204.341   2.311
 205.753   1.912 205.863   1.878 206.127   1.784 206.941   1.452 207.663   1.185
 207.724   1.137 208.146    .743 208.643    .329 209.163   -.129 209.267   -.192
 209.301   -.234 209.753   -.078 223.417    -.15 229.176   -.245 273.026   -.391
 299.188   -.478  321.45   -.504   334.5   -.561 335.047   -.548 337.908   -.505
 342.271     -.5 350.198   -.493 353.359    -.49 354.215    -.49 354.493   -.486
 355.509   -.503 355.633   -.506 355.771   -.501 356.687   -.422 357.089   -.379
 357.191   -.373 357.362    -.34 358.327   -.177 358.702   -.138  359.44   -.033
 359.567   -.012 360.147    .038 360.368    .067  361.34    .288 361.705    .358
 362.097    .441 372.379   2.889 381.631   5.102 384.104   5.672 384.311   5.665
 386.251   5.647 386.326   5.649  386.46   5.648 387.771   5.651 388.357   5.652
 389.217   5.663  389.74   5.636 390.227   5.635 394.099   7.427 394.311   7.495
 394.385   7.561 394.611   7.635 395.783   8.024 396.126   7.971 397.174   7.832
 397.941   7.835 398.595   7.834 399.776   7.873 400.006   7.885  400.78   7.891
 401.356    7.91 401.821   7.918 402.613    7.95 403.588   7.958 403.897    7.96
 403.995    7.96 405.285   7.981 405.818   7.963  406.66   7.915 407.628   7.875
 408.041   7.878 409.328   7.832 409.402   7.831 409.443   7.831   410.6   7.841
 411.319   7.947  411.82   8.003 412.714   8.111  413.08   8.141 413.303   8.134
 415.733   8.404 426.493   9.411 434.525   9.778 451.512  11.006 453.403  10.982
 456.196  10.935 469.038  11.739 470.101   11.75 470.479  11.761 471.573  11.764
 474.135  11.824 474.385  11.833 474.713  11.843  497.79  14.835 540.996  19.204
 542.038  18.948 544.418  18.924 545.021  18.896 548.613  19.161 551.181  19.506
 557.078  20.543 557.084  20.544 557.089  20.544 557.095  20.545 557.437  20.593
 558.571  20.702 560.307   20.52 560.664  20.493 562.299  20.337 568.896  19.511
#Mann= 3 , 0 , 0 
       0     .07       0       0     .07       0 568.896     .07       0
Bank Sta=0,568.896
XS Rating Curve= 0 ,0
XS HTab Starting El and Incr=-0.411,0.3, 70 
XS HTab Horizontal Distribution= 5 , 5 , 5 
Exp/Cntr=0.3,0.1

Type RM Length L Ch R = 1 ,132.79  ,,,
XS GIS Cut Line=3
438761.4740858974898565.36415853438536.3857169324898621.08704554
       438276.76      4898685.36
Node Last Edited Time=Jan/16/2021 11:04:10
#Sta/Elev= 473 
       0   10.52   1.309  10.554   1.584  10.567   1.896  10.655   2.025  10.648
   3.725  10.646   5.377  10.759    5.58  10.769   5.648  10.762   5.892  10.802
   6.139   10.82   6.983  10.816    7.14   10.84   8.039   10.77    8.21  10.763
    8.44  10.743   9.466  10.725   9.662  10.745  10.598  10.741  10.908   10.73
  11.221  10.808  12.305  10.827  12.425  10.836   12.94  10.816  13.484  10.793
  13.612  10.785  14.444  10.796  15.204  10.764  15.255  10.762  15.355  10.776
  15.456  10.788  15.486  10.787  16.595    10.7   16.66  10.704  17.366  10.676
  17.708   10.65  18.368  10.607  18.577  10.593  19.224  10.608  19.472  10.608
  20.099  10.619  20.592  10.665  20.872   10.73   21.37  10.769  22.454  10.783
  22.889  10.767  23.212   10.76   23.83  10.813  23.843  10.824  24.834  10.916
  24.977  10.931  24.999   10.93  26.083  10.929  26.976  10.927  27.115  10.919
   27.27  10.904  28.016  10.841  28.678  10.696   28.92  10.676  29.091  10.673
  29.736   10.64  30.821  10.576  31.237  10.515  32.115  10.427  32.903  10.371
  33.429  10.312   33.85  10.302  34.141  10.281  34.709  10.274  35.223  10.247
  36.302  10.227  36.676  10.215  38.356  10.254  38.575  10.226  38.706  10.192
  38.838  10.216  39.968  10.091  40.784  10.073  41.494  10.047  43.061  10.081
  43.506  10.107  43.923  10.113  44.171  10.093   44.63  10.037  46.026   9.879
  46.463   9.955  46.835   9.959  47.014   9.947  47.682   9.952  50.271   9.962
  50.898   9.931  59.856   9.372  70.116    8.63  72.562   8.553  72.642   8.558
  72.784   8.548  73.106   8.519  73.313    8.51  74.568   8.434  75.113   8.369
  76.266   8.194  76.302   8.191   76.84   8.236  77.083   8.261  77.127   8.258
   77.82   8.202   78.15   8.197  78.653    8.19  78.826   8.182  79.897   8.131
  80.367   8.126  81.621   8.033  81.958   8.015  82.054   8.014   82.19   7.995
  82.467   8.004  82.957   7.985   83.21   7.967  84.337    7.87  84.974   7.794
  85.808   7.798  86.064   7.789  86.347   7.769   86.82   7.727  87.249   7.749
  87.445   7.756  87.861   7.705  88.263   7.691  88.989   7.625  89.258   7.613
  89.658   7.594  90.504   7.549  91.109   7.532  91.431   7.531  91.687   7.521
  92.063   7.475  92.232   7.456  92.688    7.45  92.733   7.449  92.743   7.449
  93.451   7.413  93.554   7.409  93.769   7.391  94.529   7.347   95.19   7.353
  95.592   7.353  96.084   7.301  96.381   7.264  96.786   7.256  97.092   7.264
  97.739   7.276  97.925   7.267  98.265   7.245  98.623   7.219  98.816   7.205
   99.72   7.128 100.934   7.007 101.002   7.001 101.055   6.996 101.447   6.992
 101.566   7.003 102.156   6.988 102.571   6.937 102.979   6.894 103.758   6.816
 103.949     6.8 104.274   6.805 105.299   6.826  105.94   6.838  106.25   6.874
 106.904   6.892 107.103   6.909 107.509     6.9 108.259   6.939 108.878   6.942
 109.425    6.97 110.511   7.008 110.866   7.021 111.055   7.021 111.471   7.061
 112.362    7.06 112.459   7.073 113.275   6.996 113.541   6.987 113.783   6.977
 114.823   6.995 115.861   6.975 116.053   6.981  116.31    6.97 116.759   7.029
 116.772   7.029 117.805   6.955 117.951   6.954 118.455   6.963 120.077   6.945
 121.114   7.074  121.65   7.126 122.171   7.102   123.1   7.037   123.8   7.084
  124.06   7.109 126.637   7.106 128.977   7.052 129.481   7.084 133.087   6.962
 133.534   7.022 135.025   7.032 142.174   6.834 145.516   5.777 147.048   5.094
 148.594   4.373  150.24    3.97 153.415   1.883 154.639   1.084 154.772    .966
 154.939    .883 155.393    .652 155.888    .449 156.864    .353 157.771    .227
 158.035    .186 158.458     .15 159.158   -.104 159.421   -.124 159.748     -.1
 159.948   -.169 160.227     -.2 160.901   -.259 161.297    -.29 162.101   -.344
 163.208   -.427 163.306   -.434 163.632   -.435  164.49   -.436 165.587   -.464
 165.668   -.467 167.187   -.477 176.359   -.372  176.99   -.379 178.642   -.354
  178.86   -.352  179.43   -.361 187.325   -.477 189.148    -.48 189.413   -.478
 192.028   -.515 193.011   -.519 195.167   -.575  200.01   -.598 208.717    -.86
 222.158   -.604 231.883   -.593 258.777   -.562  259.15   -.567 259.288   -.556
 261.867   -.578 262.541   -.623 271.261   -.676 273.025   -.518 276.087    -.47
 282.176    -.48 282.246   -.482  282.38   -.472 283.609   -.441 288.463    -.44
 288.479    -.44 288.566   -.442 291.208   -.499  292.03   -.531  292.43    -.53
 293.621   -.527  295.49    -.52 295.855   -.527 296.605   -.507  297.52   -.531
 298.227    -.52 299.656   -.566 301.831   -.462  302.87   -.479 304.905   -.401
 305.683   -.409 309.612     -.5 310.543   -.495 313.045   -.546 313.346   -.552
 313.533   -.539 314.443   -.458  316.64   -.559 316.898     -.6 317.502   -.578
 319.569   -.603  320.73   -.544 320.847   -.531 321.225   -.527 322.337   -.527
 323.581   -.529 331.213   -.533  331.34   -.589 331.547   -.578 332.558   -.473