Geom Title=Site 360 Geomety data
Program Version=5.07
Viewing Rectangle= 394625.10727837 , 394925.304682256 , 102520.719729877 , 102132.231289803 

River Reach=mattawoman creek,RiverCL         
Reach XY= 29 
       394869.83       102513.85       394858.43       102476.07
       394855.74       102468.01       394858.03       102456.58
       394861.82       102450.27       394881.75       102442.47
       394883.92       102431.81       394877.14       102421.26
       394867.74       102405.47       394854.42       102401.01
        394839.9       102408.52       394829.99       102406.21
       394822.76       102401.29        394816.1       102393.64
       394810.16       102370.32       394806.54       102351.54
       394806.54       102338.91       394804.23         102322.
       394799.75         102309.        394787.6       102297.29
       394770.79       102292.75       394749.97       102282.78
       394723.22       102274.83       394702.54       102274.83
       394691.94       102271.71       394687.14       102260.84
       394687.14       102237.98        394695.8       102203.83
       394701.47       102136.04
Rch Text X Y=394743.56,102230.4925
Reverse River Text=-1 

Type RM Length L Ch R = 1 ,512.02  ,19.95,19.95,19.95
XS GIS Cut Line=3
394922.361570453102482.032026241394864.267920462102495.422229349
394771.038396303 102516.91101968
Node Last Edited Time=Jun/18/2019 13:50:31
#Sta/Elev= 490 
       0  12.016    .288  11.985    .494  11.928    .905  11.971    1.84  12.078
   2.203  12.099   2.789   12.13   2.841  12.138   2.939  12.119    3.43  12.086
   3.683  12.097   4.098  12.025   4.122  12.018   4.175  12.028   4.699  12.163
   5.298  12.043    5.35  12.055   5.492    12.1   5.763   11.99    5.81  11.988
   6.044  12.001   6.798   12.04   7.199  12.057    7.73  12.097   7.766  12.101
   8.496  12.083   8.684   12.09   9.239  12.027   9.303  12.033   9.653  12.037
  10.419  12.168  10.502  12.175  10.528  12.171  11.191  12.104  11.399  12.163
  11.715  12.187  11.776  12.174  11.834    12.2  12.409  12.076  12.833   12.16
  12.842  12.159  13.243  12.161  13.326   12.16  13.975  12.043  14.024  12.036
  15.298  12.259  15.461   12.25  15.677  12.249  16.072  12.126  16.203  12.149
  16.358    12.2  16.889  12.219  17.248  12.211  17.329  12.132  17.387  12.127
  17.626  12.125   17.99   12.06  18.352   12.04   18.82   12.04  18.879  12.047
  18.951  12.044  19.882  12.125  20.093   12.04   20.34  11.992  20.493  12.034
   20.92  12.028  21.407  12.033  21.745  12.043   22.08  12.064  22.137  12.057
  22.545  12.079  23.065  12.149  23.542  12.105  23.921  12.157  23.997  12.155
  24.025  12.171  24.691  12.283  25.073   12.19  25.609  12.116  25.673  12.114
  25.837  12.164  26.188  12.237  26.455  12.235  27.084  12.153  27.523  12.262
  27.573    12.3  28.205  12.124   28.31  12.123  28.326  12.117  28.801  12.117
  29.082  12.134  29.174  12.184  30.046  12.267  30.139  12.278  30.181   12.27
  30.574  12.159  30.967  12.167   31.63  12.267  31.972  12.257   32.47  12.151
    32.5  12.152  32.795  12.224  32.919   12.26  33.048  12.159  33.222  12.154
   33.52    12.3  33.586  12.257  34.374  12.275  34.522  12.253  34.581  12.231
  34.978  12.203  35.177  12.144  35.226  12.173  35.326  12.171  35.378   12.16
  36.517  12.238  36.743  12.151  36.795  12.152  36.839  12.143  36.866   12.17
  37.707  12.284  37.929  12.275  38.796  12.191  38.913  12.168  38.955  12.176
  39.185  12.262  39.494  12.406  39.786  12.348  40.076  12.265  40.164  12.234
  40.377   12.26  40.811   12.26  41.317  12.387  41.336  12.389  42.129  12.211
  42.236  12.234  42.375  12.372  42.608  12.351  42.619  12.324    43.2  12.192
  43.434   12.18  43.621  12.194  43.852  12.198  44.412  12.157  44.937   12.23
  45.523  12.161  45.595  12.173  45.892  12.181  46.016  12.167  46.299  12.201
  46.401  12.219  46.682   12.21   47.13   12.23  47.578  12.239  47.602  12.232
  47.621  12.177  47.733   12.16  47.995   12.13  48.049  12.131  49.044   12.27
  49.282  12.188  49.387  12.222  49.458  12.217  49.762  12.181  49.944  12.224
  50.727  12.352  50.896  12.312  51.058  12.289  51.523    12.3  51.629  12.298
  51.822  12.345  52.107  12.417  52.364  12.409  52.398  12.387  52.521  12.379
  52.793  12.404   53.56  12.408  53.677   12.44  53.835  12.429  53.857  12.404
  53.931  12.381  54.795  12.379  54.863  12.377   55.02  12.361  55.093   12.41
    55.3   12.42  55.351  12.332  55.779  12.363   56.11  12.418  56.605  12.366
  56.665  12.373  56.811  12.354  56.879  12.318  56.959  12.253  57.312   12.25
  57.558  12.305  58.268  12.353  58.378  12.303  58.548  12.309  59.008  12.313
  59.094  12.384   59.57  12.439  59.909  12.447  60.421  12.409  60.603  12.402
  60.727  12.402  61.386  12.413  61.492  12.407  62.266   12.43  62.503   12.41
  62.755  12.364  62.855  12.367  63.075  12.412  63.705  12.543  64.035  12.392
  64.216  12.375  64.474  12.398   64.55  12.391  64.755  12.478  64.875  12.488
  65.246  12.513  65.677   12.53  66.172  12.481  66.406  12.461  66.601   12.45
      67  12.472  67.147  12.497  67.191  12.379  67.348  12.326  67.999  12.212
   68.02  12.214  68.208  12.302  68.427  12.401  68.572  12.424  68.969  12.479
  69.036    12.5  69.073  12.502  69.959  12.587  70.131  12.605  70.501  12.554
  71.425  12.549  71.518  12.532  71.613  12.541  71.869  12.549  72.258  12.582
  72.592   12.55  73.013  12.454  73.504  12.314  73.771   12.25  73.886  12.196
  74.656  12.176  74.946  12.221  75.102  12.141  75.462  12.106  75.792  12.208
   76.05  12.203  76.403  12.386   76.81  12.375   76.93   12.39  77.632  12.402
  77.817   12.41  77.825  12.413  78.624  12.548  79.044  12.486    79.4  12.508
  79.584  12.517  79.859  12.467  80.186  12.561  80.824  12.563  80.885  12.558
  81.053  12.526  81.267  12.493  81.443  12.452  81.867  12.587  82.835  12.654
  82.983   12.65  83.034  12.662  83.678  12.597  84.454  12.678  84.633  12.691
   85.99  12.667  86.149  12.608  86.433  12.534  86.964   12.52  86.998  12.525
  87.475  12.656  88.345  12.722  88.467  12.712  88.534  12.726  88.895  12.705
  89.134  12.683  89.162  12.647  89.317  12.641  89.771  12.681  90.467  12.744
  90.941  12.721  91.089  12.695  91.196  12.683  91.507  12.513  91.537  12.506
  92.248  12.259  92.757  12.098  92.893  12.044  92.929  12.043  93.319  11.897
  93.443  11.889  94.523  11.992   94.86  12.012  95.001  11.929  96.805  11.908
  97.184  12.092  99.515  11.857 101.555  11.981 101.966  12.044 102.217  12.184
 102.486  12.048 102.536  12.018 102.573  12.021  102.88  12.009 103.281  12.494
  103.33  12.433 103.356  12.463 103.457  12.467 104.676  12.575 104.892  12.597
 105.198   12.52 105.242  12.499 106.033  12.551 106.408  12.571 106.508  12.568
 107.263  12.646 107.328  12.658 107.642  12.678 107.776  12.663  108.42  12.538
 108.506  12.562 108.842  12.585 108.883  12.586 108.977  12.604 109.368  12.661
 109.756  12.618 110.045  12.575 110.529  12.587 111.235   12.65 111.597  12.671
  112.08  12.687  112.42  12.696 112.838  12.621 113.383  12.635 113.673  12.596
 115.037  12.546  115.46  12.517 116.024  12.482 116.107  12.474 116.931  12.403
 117.316   12.43  117.87   12.39 118.241  12.354 118.303  12.366 118.461  12.423
 118.883   12.36 119.256  12.375  119.96  12.385 120.046   12.39 120.316  12.396
 120.455  12.448 120.509  12.417  120.65  12.435 120.765  12.445  121.47  12.472
 121.629  12.549 122.377  12.501 122.577  12.479 122.653  12.496  122.88  12.439
 122.953  12.405 123.137  12.396 123.958  12.415 124.049  12.413 124.151  12.424
 124.351  12.424 124.418  12.402 124.644  12.303  124.67  12.317  124.75  12.302
 125.024  12.242 125.324   12.31 125.692  12.443 126.091  12.303 126.255  12.346
 126.412   12.31 126.555  12.303 126.965  12.325 127.402  12.361 127.663  12.301
 127.883  12.303 128.128   12.35 128.297  12.301 128.647  12.369 128.968  12.339
 129.192  12.357 129.245  12.348 129.353  12.273 129.687   12.33 129.876  12.348
 130.064    12.3 130.492  12.291 130.803  12.313 131.284  12.416 131.316  12.418
 131.642  12.376 131.977   12.39 132.213  12.332 132.305  12.295 132.384  12.303
 132.553  12.334 132.864  12.385  133.38  12.379 133.702  12.329 133.784  12.335
 134.083  12.406 134.518  12.458 134.842  12.433 135.087   12.38 135.395  12.349
 135.549   12.37 135.793  12.423 136.329   12.41  136.56  12.396 136.635   12.41
 136.857  12.405 137.233  12.329 137.304   12.35 137.389  12.297 137.754  12.253
 137.831  12.262 138.593   12.38 138.739    12.4 139.452  12.308 139.886  12.377
 140.269  12.442 140.502  12.467 140.636  12.454 140.799  12.393 141.367  12.228
   141.5  12.342  141.71  12.312 142.227  12.365 142.643  12.345 142.803   12.32
 142.882  12.322 142.966  12.373 143.358  12.494 143.434  12.496 143.574  12.479
 144.537  12.369  144.57  12.372 144.651  12.392 144.936  12.413 145.161  12.402
 145.634  12.384 146.048  12.469 146.263  12.465 146.583  12.341 146.673  12.342
 147.627  12.371 147.701  12.369 147.897  12.442  147.94  12.437 148.601  12.336
 149.181  12.409 149.251   12.41 150.179    12.4 150.496  12.421 150.731  12.404
  151.02  12.447 151.716  12.604 152.325   12.68  152.38  12.671 152.591  12.591
  153.41  12.555 153.576  12.603 153.874  12.515 154.019  12.567 154.369  12.503
 154.536  12.505   154.6  12.499 154.667  12.506 154.959  12.527 155.291  12.537
#Mann= 3 , 0 , 0 
       0     .03       0       0     .03       0 155.291     .03       0
Bank Sta=0,155.291
XS Rating Curve= 0 ,0
XS HTab Starting El and Incr=11.857,0.04, 22 
XS HTab Horizontal Distribution= 5 , 5 , 5 
Exp/Cntr=0.3,0.1

Type RM Length L Ch R = 1 ,492.07  ,24.49,24.49,24.49
XS GIS Cut Line=3
394903.206733238102467.782679077394858.506115735102476.324866701
394805.839117647102486.389411765
Node Last Edited Time=Jun/18/2019 13:39:20
#Sta/Elev= 328 
       0      12    .671  12.357    .701  12.349    .943  12.255   1.127  12.259
    1.41  12.265   1.683  12.246    1.79  12.197    2.13  12.253   2.354  12.318
   2.734  12.252   3.485  12.115     3.6  12.133   3.645  12.129   3.932  12.206
   4.689  12.305   5.057  12.277   5.504    12.2    5.59  12.238   5.721  12.209
    5.95  12.213   6.492  12.228   6.669  12.234   7.004  12.231   7.014  12.227
   7.254  12.156   7.679  12.203   7.703  12.214   8.197  12.387   8.543  12.322
   8.895  12.291   8.996  12.274   9.404  12.406   9.455   12.43    9.57  12.423
  10.072  12.354  10.144  12.341  10.488  12.304  10.719  12.314  11.498  12.383
  11.627  12.361  12.205  12.332  12.314  12.368  12.849  12.245   13.02  12.206
  13.152  12.276  13.414   12.34   14.05  12.262   14.14  12.251  14.191  12.239
  14.555  12.242  14.761   12.25  14.982  12.309  15.272  12.377  15.738  12.385
  16.193  12.262  16.248   12.22  16.345  12.196  16.488  12.276  16.531  12.208
  16.812  12.326  16.893  12.364  17.063  12.378  17.757  12.349  18.051  12.395
  18.169  12.443  18.266  12.435   18.67  12.256  18.703  12.245  18.846  12.255
  19.333  12.293  20.305  12.406  20.439   12.38  20.564   12.44  20.799    12.5
  20.982  12.472  21.787  12.324  22.036   12.33  22.279  12.407  22.634   12.46
  22.921  12.392  23.111  12.408  23.699  12.376   23.77  12.367  24.563  12.483
  24.744  12.534  24.948  12.574  25.033  12.496  25.064  12.469   25.48  12.484
   25.92  12.432  26.435  12.521  26.548  12.534   27.17  12.314  27.199  12.282
  27.392    12.2  27.543  12.238   28.05  12.345  28.056  12.348  28.909   12.29
  29.247   12.31  29.292  12.332  29.705  12.168  29.772  12.159  30.748  12.384
  30.922  12.338  31.379  12.333   31.49  12.349  31.541   12.36  32.023  12.456
  32.213  12.494   32.29  12.513  32.373  12.492  32.804  12.399  33.187  12.383
  33.364  12.393  33.378    12.4  33.979  12.502  34.038  12.502  34.229  12.515
  36.086  12.613  36.183   12.64  36.665  12.576  36.703  12.569  36.885  12.551
  37.179  12.524  37.222   12.52  37.343  12.535  37.946    12.6  38.099  12.579
  38.462  12.523  38.681  12.512  38.878  12.487  40.106  12.626  40.198  12.632
   40.34  12.623   40.43  12.612  40.455  12.607  40.602  12.579  40.943  12.486
   41.76  12.616  42.073  12.673  42.303  12.558  42.349  12.551  42.384  12.561
   42.61  12.676  42.757  12.635  42.974  12.643  43.263  12.728  43.334  12.703
  43.765  12.647  44.293  12.655   44.53  12.632  44.763   12.64  45.199  12.707
  45.711  12.777  45.982  12.738  46.139  12.695  46.421  12.733  47.286  12.668
   47.36   12.74  47.465  12.745   48.33  12.419  48.631  12.312  48.721  12.297
  50.195  12.116  50.633  12.033  50.734  11.968  52.551  11.683   53.62  11.735
  56.005  11.851  57.555  11.924  59.141  11.914  60.464  12.306  60.557  12.408
  61.153  12.558  61.409  12.638  61.823    12.6  62.149   12.58  62.272  12.562
   62.57  12.587  62.826  12.602  63.061  12.592  63.782  12.444  63.809  12.434
  63.884  12.419  63.909  12.453  63.974  12.446  64.383  12.498  64.756  12.447
  65.204  12.397  65.366  12.405  65.776  12.404  65.839  12.386  65.971  12.396
  66.056  12.393   66.35  12.336  66.883   12.33  67.045  12.303  67.137  12.322
  67.435  12.266  67.616   12.26  67.987  12.359  68.725  12.628  68.855  12.571
  69.276  12.384  69.379  12.357   69.41  12.352  69.469  12.362  69.853  12.485
  70.274  12.617  70.281   12.62  70.329  12.614  70.458  12.618  70.935  12.614
  71.096  12.605  71.186  12.562   71.25   12.58  71.585  12.555  71.931  12.508
  72.024  12.488  72.804  12.587  73.174  12.524  73.342   12.48  73.398  12.487
   73.46  12.479  73.757  12.539  74.027  12.553  74.209  12.531  75.075   12.46
  75.173  12.451  75.207  12.435  75.392  12.366  75.464  12.345  75.851   12.32
  75.927  12.327  75.969  12.336  76.442  12.363  76.564  12.312  76.774   12.33
  77.495  12.325  77.609  12.322  77.686   12.33  77.789  12.367  77.867  12.384
  78.047  12.397  78.253  12.414  78.261  12.412   78.44  12.436  78.751  12.408
  79.091  12.322   79.43  12.357  79.515  12.352   79.82  12.393  79.935  12.397
  79.979  12.366  80.696  12.283  80.817  12.397  81.125  12.317  81.456  12.352
  81.653  12.336  82.095  12.318  82.124   12.32  82.559  12.452  83.199  12.408
  83.446  12.368  83.532  12.376  83.572   12.36  83.594   12.37  83.664  12.373
  84.076   12.47  84.216   12.39  84.657  12.401  85.154  12.456  85.311  12.469
  85.395  12.461  85.441  12.489   85.49  12.465  85.671  12.408  86.258  12.469
  86.615  12.474  86.835   12.48  86.939  12.434  87.131  12.461  87.498  12.453
  88.052  12.447  88.291  12.448   88.52  12.421  88.702  12.369  88.747  12.335
  88.881   12.33  89.231  12.269  89.338  12.291  89.643  12.464  89.792  12.511
  90.171  12.438  90.658  12.368  90.883  12.323  90.953  12.198   91.18  12.289
  91.366  12.365  91.793  12.351  92.295  12.254  92.312  12.253   92.38  12.308
  92.383   12.31  92.781  12.214  92.938  12.352  93.782  12.397  93.868  12.398
  93.896  12.397  94.106  12.454  94.222  12.477  94.237  12.469  94.761  12.333
  94.949  12.342  95.602  12.245  96.235  12.379  96.242   12.38  96.248  12.382
  96.668  12.439  97.084  12.559  97.583  12.556  97.677  12.516  97.765  12.537
  98.067  12.286  98.364  12.258   99.13  12.286
#Mann= 3 , 0 , 0 
       0     .03       0       0     .03       0   99.13     .03       0
Bank Sta=0,99.13
XS Rating Curve= 0 ,0
XS HTab Starting El and Incr=11.833,0.05, 20 
XS HTab Horizontal Distribution= 5 , 5 , 5 
Exp/Cntr=0.3,0.1

Type RM Length L Ch R = 1 ,467.58  ,52.07,52.07,52.07
XS GIS Cut Line=3
394877.454132564102460.764349495394860.124342721102453.091498891
394808.283903995102430.138886934
Node Last Edited Time=Jun/18/2019 13:39:20
#Sta/Elev= 242 
       0  12.403    .582  12.444   1.409  12.486    1.55  12.426   1.717  12.444
   2.624  12.508   3.044   12.55   3.236  12.472   3.396   12.42   3.445  12.517
   3.451   12.52   4.422  12.481   4.454  12.477   4.533  12.469   5.225  12.381
   5.368  12.268   5.656  12.189   5.706  12.196   5.944  12.241   6.169  12.279
   6.317  12.362   6.376  12.305    6.71  12.169   7.236  12.164   7.505   12.17
   7.819  12.282   7.927  12.292   8.069  12.361   8.307  12.289    8.46  12.267
   8.579  12.267   8.987   12.32   9.171   12.37   9.683  12.433   9.839  12.382
  10.236  12.368  10.362  12.345  10.394  12.199  10.407  12.167  10.448  12.165
  11.125  12.336  11.295  12.397   11.75  12.409  12.025  12.356  12.209   12.32
  12.261  12.298  12.536  12.344  13.209  12.434  13.761  12.434  14.133  12.378
  14.229  12.359  14.312  12.351  14.343  12.359  14.702   12.51   15.41  12.485
  15.579  12.479  15.871  12.453  16.268  12.425   16.72  12.547  16.734  12.548
  16.882  12.458   17.18   12.43  17.566  12.494  18.118  12.492   18.27  12.439
  18.715  12.455  18.732  12.458   19.02  12.365  19.125  12.364  19.497  12.345
  19.887  12.378   20.27  12.368  20.392  12.315  20.439  12.292  20.593  12.341
   20.99  12.404  21.274  12.404  21.508  12.399   22.16  12.233  22.969  12.405
  23.157  12.498  23.194  12.497  23.253  12.483  24.788   12.38  25.184  12.398
  25.206  12.408  25.208  12.401  25.229  12.404  25.517  12.463  26.379  12.553
  26.738   12.59  26.761   12.59  26.981  12.582  27.619  12.529  27.678   12.55
  27.765  12.544  27.984  12.545  28.492  12.594  28.525  12.591  29.022  12.474
  29.123  12.457  29.429  12.527  29.596  12.514  29.843  12.478  30.005  12.414
  30.023  12.423  30.518  12.338  30.678  12.316   30.69  12.313  31.295  12.331
    31.6  12.381  31.809    12.4  32.185  12.387  32.218  12.379  32.285  12.375
  32.534  12.342  32.935  12.364  33.172  12.426  33.778  12.398  33.941  12.401
  33.968  12.386  34.012  12.375  34.514  12.503    34.6  12.511  34.693  12.519
  35.257  12.425  35.266  12.427  35.531  12.452  36.082  12.537  36.445  12.554
  36.499  12.573  36.806  12.594  37.482  12.583  37.553  12.558  37.661  12.549
  38.056   12.56    38.2  12.566  38.354  12.589  38.539  12.611  38.957  12.606
  39.552  12.637   39.82  12.604  40.355   12.52  40.473   12.52  40.885  12.585
  41.045  12.567  41.241  12.514  41.354  12.537  41.881  12.543  42.218  12.489
  42.409  12.447  42.538  12.476  42.778  12.505  42.918  12.533  43.065  12.559
  43.585  12.563   44.36  12.446  44.423  12.441  44.453  12.394   44.49  12.433
  44.626  12.448  45.175  12.572  46.025  12.531  46.048  12.533  46.075  12.524
  46.309   12.53  46.402  12.549   46.76  12.507  46.795  12.504  46.896  12.507
  47.171  12.458  47.625  12.488  47.787  12.465  48.158  12.432  49.032  12.491
  50.096  12.158  50.287  12.025  50.462  12.021  52.184   11.71  54.791   11.68
  55.499  11.775  55.749  11.777  56.666  11.777  56.694  11.779  57.256  11.833
  58.777  11.907  59.047  12.033  59.224  12.058  59.629  12.165  60.248  12.162
  60.381  12.165  60.442  12.174  60.584  12.217  61.384  12.433  61.626   12.47
  62.004  12.447   62.79  12.402  62.993  12.385  63.151  12.396  63.225  12.363
  63.632  12.382   63.79  12.385  63.846  12.427  65.134   12.48  65.142   12.48
  65.146  12.481  65.483  12.492   65.62  12.518  65.988   12.58  66.203  12.493
  66.743  12.555  67.127   12.55  67.245  12.526  67.577  12.557  68.835  12.662
  68.889  12.669  68.899  12.668  68.913  12.666  69.457  12.451  69.672  12.609
   71.24  12.643   71.38  12.641  71.466  12.627  71.503   12.63   71.86  12.477
  71.973  12.433  72.073  12.459  72.306  12.551  72.457  12.564  73.002  12.515
  73.397  12.461  73.652  12.426  73.722   12.43  73.732  12.425  73.774  12.427
    74.7  12.463  74.929  12.433  75.111   12.45  75.224  12.493  75.327  12.492
  75.509  12.431  75.647  12.351
#Mann= 3 , 0 , 0 
       0     .03       0       0     .03       0  75.647     .03       0
Bank Sta=0,75.647
XS Rating Curve= 0 ,0
XS HTab Starting El and Incr=11.83,0.04, 21 
XS HTab Horizontal Distribution= 5 , 5 , 5 
Exp/Cntr=0.3,0.1

Type RM Length L Ch R = 1 ,415.51  ,22.45,22.45,22.45
XS GIS Cut Line=3
394918.933636364102399.007692308394875.117446001102417.860097648
394846.995711565102429.959788015
Node Last Edited Time=Jun/18/2019 13:39:20
#Sta/Elev= 274 
       0  12.409    .485  12.446    .583  12.435    .714  12.442   1.056  12.502
   1.166  12.467   1.339  12.472    1.43  12.472   1.582   12.45   1.777  12.442
   2.191  12.433   2.235  12.446   2.298  12.438    2.61  12.441   3.281  12.507
   3.663  12.443   3.792  12.466   4.196   12.38   4.982  12.434   5.033  12.442
   5.167   12.44   5.404  12.454   5.873  12.486   6.165   12.47   6.609  12.417
   6.629  12.413   6.872  12.353   7.384  12.396    7.63  12.375   8.148  12.447
   8.183  12.445    8.24  12.453   8.627   12.44   9.086  12.502   9.417  12.521
   9.994  12.519  11.295  12.519  11.496   12.56  11.803  12.482  12.033  12.505
  12.374  12.495   12.43  12.512  12.481  12.504  13.017  12.514  13.568    12.5
  13.648  12.497  14.034  12.514  14.383  12.483  14.922  12.485  15.068  12.473
  15.392  12.453  15.754  12.383  16.058   12.34  16.296   12.35  16.375  12.349
  17.043  12.416  17.293  12.413  17.323   12.41  17.721  12.289  17.995  12.311
  18.539  12.527  18.621  12.527  19.017  12.551  19.356  12.581  19.508  12.578
  19.597  12.563  19.792  12.547  19.961  12.553  20.074  12.562  20.207  12.566
  20.798  12.549  21.451  12.462   21.49  12.463  21.516  12.463  21.873  12.564
  21.945  12.576  22.406  12.643   23.08  12.582  23.101  12.581  23.449  12.563
  23.539   12.54  23.768  12.527  23.993  12.478  24.147   12.43  24.213   12.41
      25  12.362  25.107  12.358  25.193  12.388  25.274  12.474  25.369  12.482
   25.56  12.549  25.624  12.533  26.087  12.347  26.545  12.398  26.558  12.386
  26.773  12.159  26.924  12.135   28.82  12.307  30.614  12.442   33.52   12.66
  34.061   12.62  34.129  12.544  34.506  12.545  34.723  12.751  34.824   12.78
  34.928   12.78   36.18  12.849   36.55  12.822  36.803  12.837  37.481  12.834
  37.883  12.757  38.348  12.763   38.43  12.759  38.641  12.756   39.54  12.813
  39.807  12.825  40.089  12.715   40.62  12.697  41.045  12.637  41.181  12.597
  41.333   12.63  41.618  12.584  42.311  12.573  42.421  12.571    42.7  12.691
  42.716  12.634  42.851  12.681   43.02  12.637   43.53  12.634  44.262  12.731
  44.372  12.702  44.932  12.482   45.24  12.506  45.706   12.58  45.881  12.591
  46.004  12.609  46.382  12.513  46.776  12.437   47.09   12.57  47.165  12.592
  47.293  12.609  47.308   12.61  47.313   12.61  48.123  12.638  48.536  12.617
  48.736   12.53  48.742   12.53  48.994  12.606  49.046  12.601  49.304  12.491
  49.839  12.484   50.21  12.484   50.28  12.489  50.539  12.506  50.576  12.493
   50.66  12.469  50.757  12.391  50.873  12.371  50.891  12.371  50.915  12.362
  51.329  12.391  51.643  12.404  51.735  12.439  51.839  12.417  52.196  12.413
  52.222  12.437  52.375  12.482  52.624  12.472  53.147  12.452  53.224  12.497
  53.314  12.568  53.607  12.509  53.796  12.446  53.889   12.41  53.966  12.396
  54.205  12.313  54.343  12.348  54.502  12.347  54.803  12.447  55.328  12.435
  55.619  12.461   55.77  12.421  56.027  12.409  56.168  12.392  56.385  12.554
  56.675  12.433  56.973  12.422   57.12  12.407  57.216  12.427  57.539  12.401
  57.668   12.39  57.693  12.387  58.188  12.298  58.384  12.338  58.532  12.377
  58.672  12.404  59.216   12.52  59.272  12.513  59.657    12.4  59.882   12.39
  60.003  12.435  60.124  12.455  60.167  12.451   60.54  12.343  60.886   12.37
  61.216  12.319  61.552   12.34  61.747  12.316  61.831  12.307  62.086  12.342
  62.318   12.36  62.468  12.409  62.586  12.351  63.346  12.381  63.585  12.352
  63.622  12.337   63.68  12.343  64.257  12.258  64.283  12.254  64.304  12.252
  64.318   12.25  65.005  12.376  65.191   12.36   65.47   12.33   65.61  12.469
  65.647  12.447  66.142  12.229  66.191  12.231  66.299  12.232  66.743  12.252
  66.828  12.203  67.136  12.214  67.836  12.193  68.257  12.174  68.435  12.151
  68.687  12.121  69.583  12.164  69.734  12.193  69.868  12.183  69.916  12.186
  70.407  12.237  70.521  12.257  71.796  12.172  71.805  12.172  71.816  12.168
  72.104  12.271  72.153  12.292  72.411  12.171  72.526  12.189  72.632  12.162
   73.03  12.118  73.182  12.154  73.653  12.209  73.659  12.205  73.691    12.2
  73.773  12.197  73.958  12.163  74.452  12.161  75.019  12.194  75.078  12.169
  75.253  12.273  75.414  12.283  75.596   12.27  75.715  12.276  76.506  12.204
   76.79  12.259  76.827  12.262   77.03  12.193  77.283  12.207  77.537   12.11
  77.937  12.137  78.118  12.132  78.304   12.14  78.314  12.146
#Mann= 3 , 0 , 0 
       0     .03       0       0     .03       0  78.314     .03       0
Bank Sta=0,78.314
XS Rating Curve= 0 ,0
XS HTab Starting El and Incr=12.11,0.04, 20 
XS HTab Horizontal Distribution= 5 , 5 , 5 
Exp/Cntr=0.3,0.1

Type RM Length L Ch R = 1 ,393.06  ,38.12,38.12,38.12
XS GIS Cut Line=3
394881.391197899102360.981541649394860.125420559102402.922980962
394853.084620492102416.809202187
Node Last Edited Time=Jun/18/2019 13:39:20
#Sta/Elev= 187 
       0  12.504    .191  12.521    .431  12.523    .675  12.448    .761  12.385
   1.209  12.498   1.302  12.533   1.394  12.507   1.809  12.384   2.345  12.418
    2.84  12.461    3.21  12.453   3.687  12.439   4.083  12.462   4.467  12.537
   4.594  12.481   4.669  12.597    4.82  12.562   5.224  12.455   5.438  12.499
   5.853  12.603    6.54  12.617   6.891  12.586   7.145  12.469   7.222  12.488
   7.628   12.37   8.244  12.213   8.357  12.149   9.011    12.2   9.053  12.215
   9.165  12.221   9.441  12.203   9.743  12.263   9.865  12.266   10.09  12.121
  10.336  12.123  10.555  12.118  11.017  12.275  11.452  12.307  11.632  12.325
  11.936   12.39  11.956  12.415  12.245  12.376  12.601  12.031  12.701  11.847
  12.757  11.791  12.997  11.836  15.569  11.817   17.76  11.801  23.907  11.931
  24.185  11.863  24.329  11.896  25.179   12.52  25.218  12.531  25.657  12.657
   25.69  12.658  25.731  12.669   25.74  12.668  25.759  12.667  26.427   12.61
  27.195   12.63   27.23  12.631  27.246  12.634  28.562  12.712  28.602  12.682
   28.83   12.71  28.911  12.706  29.158  12.722  29.768  12.728  29.843  12.744
  29.874  12.743  30.622  12.746  31.561  12.713  31.955   12.71  32.754  12.491
  32.799  12.479  32.969   12.52  33.287  12.577  33.393  12.597  34.362  12.553
   35.58  12.595  35.681  12.584  35.984  12.515  36.559  12.408  36.634   12.43
  37.139  12.548  37.582  12.515  38.146  12.508  38.583  12.484  38.618  12.455
  38.849  12.505  39.129  12.482  39.854  12.517  40.322  12.502  40.505  12.471
  40.566  12.486  40.609  12.473  40.802  12.483  41.204  12.486   41.29  12.513
  41.505  12.486  41.807   12.48  41.809   12.48  42.745    12.4  42.748  12.401
   42.75    12.4  42.762  12.398  43.016  12.388  43.576  12.388  43.606  12.378
  43.659  12.376  43.936  12.398  43.944  12.398  44.188  12.311  44.704  12.337
   44.78  12.353  45.074  12.371  45.082  12.371   45.55  12.236  45.949    12.4
  45.971  12.359  46.043  12.252  46.114  12.254  46.555  12.346  46.609  12.349
  47.834  12.355  48.243  12.282  48.467  12.285  48.495  12.295  48.896  12.337
  49.307  12.383  49.421  12.285  49.656  12.245  49.752  12.226  49.785  12.204
  50.309   12.32  50.476  12.311  50.608  12.399  50.704  12.248  51.527  12.253
  51.849  12.257  51.884  12.254  52.075  12.231  52.472  12.193  52.842  12.242
  53.069  12.234  53.239  12.214  53.659  12.166  53.857  12.189  53.923  12.188
  54.004   12.16  54.378  12.146  54.801  12.127  54.983  12.188  55.172  12.235
  55.617  12.246  55.724  12.225  56.269  12.206  56.589  12.151  57.001  12.151
  57.052  12.145  57.319  12.098  57.794  12.191  57.849  12.175  58.007  12.155
   58.18   12.08  58.487  12.123  58.678   12.13    58.8  12.153  59.364  12.121
  59.398  12.117  59.499  12.129  59.818  12.179   59.93  12.162  60.219  12.127
  60.564  12.115  60.823  12.155   61.27  12.088  61.488   12.08  61.519  12.086
  61.627  12.105  62.023  12.162  62.452  12.088  62.514  12.075   62.55  12.068
  62.591  12.074  62.594  12.074
#Mann= 3 , 0 , 0 
       0     .03       0       0     .03       0  62.594     .03       0
Bank Sta=0,62.594
XS Rating Curve= 0 ,0
XS HTab Starting El and Incr=11.941,0.04, 20 
XS HTab Horizontal Distribution= 5 , 5 , 5 
Exp/Cntr=0.3,0.1

Type RM Length L Ch R = 1 ,354.94  ,44.93,44.93,44.93
XS GIS Cut Line=3
394841.315041844102375.273424178394825.369449735102403.069406466
394814.498274431102422.019784359
Node Last Edited Time=Jun/18/2019 13:39:20
#Sta/Elev= 151 
       0  12.293    .265  12.283    .361  12.345    .506  12.362    .678  12.355
    .806  12.338    1.11  12.339    1.78  12.298   2.021  12.433   2.235  12.475
   2.397  12.381   2.563  12.383   2.856  12.486   2.994  12.501    3.09  12.481
   3.591  12.313   3.842  12.335   4.007   12.38   4.702  12.479   4.704   12.48
   5.032  12.374   5.333  12.372   5.671   12.42   5.673   12.42    6.12  12.434
   6.319  12.387   6.538   12.41   6.693   12.42   6.891  12.344     7.4  12.304
   7.554  12.255   7.659  12.286   8.004  12.315   8.457  12.277   8.651  12.349
   9.032  12.492   9.057  12.496   9.133  12.397   9.848  12.468  10.248  12.472
   10.46  12.464  11.501  12.487   11.59  12.475  11.815  12.443  12.061  12.488
  12.097  12.485  12.181  12.499  13.096  12.436    13.2   12.38  13.209   12.38
  13.825  12.375  14.265  12.317  14.437  12.233  14.553  12.261  14.772  12.254
  15.262  11.816  16.009  11.828  19.686   11.81  21.273  11.778  21.847  11.779
  22.391  11.779  22.947    11.8  23.042    11.8  25.338  11.825  25.634  11.853
  25.701  11.814  25.766  11.839  26.369  11.753  26.462  11.768  26.741  11.775